(PID.TID 0000.0001) 
(PID.TID 0000.0001) // ======================================================
(PID.TID 0000.0001) //                      MITgcm UV
(PID.TID 0000.0001) //                      =========
(PID.TID 0000.0001) // ======================================================
(PID.TID 0000.0001) // execution environment starting up...
(PID.TID 0000.0001) 
(PID.TID 0000.0001) // MITgcmUV version:  checkpoint63e
(PID.TID 0000.0001) // Build user:        jmc
(PID.TID 0000.0001) // Build host:        baudelaire
(PID.TID 0000.0001) // Build date:        Mon Nov  7 15:48:23 EST 2011
(PID.TID 0000.0001) 
(PID.TID 0000.0001) // =======================================================
(PID.TID 0000.0001) // Execution Environment parameter file "eedata"
(PID.TID 0000.0001) // =======================================================
(PID.TID 0000.0001) ># Example "eedata" file
(PID.TID 0000.0001) ># Lines beginning "#" are comments
(PID.TID 0000.0001) ># nTx - No. threads per process in X
(PID.TID 0000.0001) ># nTy - No. threads per process in Y
(PID.TID 0000.0001) > &EEPARMS
(PID.TID 0000.0001) > nTx=1,
(PID.TID 0000.0001) > nTy=1,
(PID.TID 0000.0001) > /
(PID.TID 0000.0001) ># Note: Some systems use & as the
(PID.TID 0000.0001) ># namelist terminator. Other systems
(PID.TID 0000.0001) ># use a / character (as shown here).
(PID.TID 0000.0001) 
(PID.TID 0000.0001) // =======================================================
(PID.TID 0000.0001) // Computational Grid Specification ( see files "SIZE.h" )
(PID.TID 0000.0001) //                                  ( and "eedata"       )
(PID.TID 0000.0001) // =======================================================
(PID.TID 0000.0001)      nPx =    1 ; /* No. processes in X */
(PID.TID 0000.0001)      nPy =    1 ; /* No. processes in Y */
(PID.TID 0000.0001)      nSx =    1 ; /* No. tiles in X per process */
(PID.TID 0000.0001)      nSy =    2 ; /* No. tiles in Y per process */
(PID.TID 0000.0001)      sNx =    1 ; /* Tile size in X */
(PID.TID 0000.0001)      sNy =   16 ; /* Tile size in Y */
(PID.TID 0000.0001)      OLx =    3 ; /* Tile overlap distance in X */
(PID.TID 0000.0001)      OLy =    3 ; /* Tile overlap distance in Y */
(PID.TID 0000.0001)      nTx =    1 ; /* No. threads in X per process */
(PID.TID 0000.0001)      nTy =    1 ; /* No. threads in Y per process */
(PID.TID 0000.0001)       Nr =   25 ; /* No. levels in the vertical   */
(PID.TID 0000.0001)       Nx =    1 ; /* Total domain size in X ( = nPx*nSx*sNx ) */
(PID.TID 0000.0001)       Ny =   32 ; /* Total domain size in Y ( = nPy*nSy*sNy ) */
(PID.TID 0000.0001)   nTiles =    2 ; /* Total no. tiles per process ( = nSx*nSy ) */
(PID.TID 0000.0001)   nProcs =    1 ; /* Total no. processes ( = nPx*nPy ) */
(PID.TID 0000.0001) nThreads =    1 ; /* Total no. threads per process ( = nTx*nTy ) */
(PID.TID 0000.0001) usingMPI =    F ; /* Flag used to control whether MPI is in use */
(PID.TID 0000.0001)                   /*  note: To execute a program with MPI calls */
(PID.TID 0000.0001)                   /*  it must be launched appropriately e.g     */
(PID.TID 0000.0001)                   /*  "mpirun -np 64 ......"                    */
(PID.TID 0000.0001) useCoupler=    F ;/* Flag used to control communications with   */
(PID.TID 0000.0001)                   /*  other model components, through a coupler */
(PID.TID 0000.0001) debugMode =    F ; /* print debug msg. (sequence of S/R calls)  */
(PID.TID 0000.0001) printMapIncludesZeros=    F ; /* print zeros in Std.Output maps */
(PID.TID 0000.0001) maxLengthPrt1D=   65 /* maxLength of 1D array printed to StdOut */
(PID.TID 0000.0001) 
(PID.TID 0000.0001) // ======================================================
(PID.TID 0000.0001) // Mapping of tiles to threads
(PID.TID 0000.0001) // ======================================================
(PID.TID 0000.0001) // -o- Thread   1, tiles (   1:   1,   1:   2)
(PID.TID 0000.0001) 
(PID.TID 0000.0001) // ======================================================
(PID.TID 0000.0001) // Tile <-> Tile connectvity table
(PID.TID 0000.0001) // ======================================================
(PID.TID 0000.0001) // Tile number: 000001 (process no. = 000001)
(PID.TID 0000.0001) //        WEST: Tile = 000001, Process = 000001, Comm = put
(PID.TID 0000.0001) //                bi = 000001, bj = 000001
(PID.TID 0000.0001) //        EAST: Tile = 000001, Process = 000001, Comm = put
(PID.TID 0000.0001) //                bi = 000001, bj = 000001
(PID.TID 0000.0001) //       SOUTH: Tile = 000002, Process = 000001, Comm = put
(PID.TID 0000.0001) //                bi = 000001, bj = 000002
(PID.TID 0000.0001) //       NORTH: Tile = 000002, Process = 000001, Comm = put
(PID.TID 0000.0001) //                bi = 000001, bj = 000002
(PID.TID 0000.0001) // Tile number: 000002 (process no. = 000001)
(PID.TID 0000.0001) //        WEST: Tile = 000002, Process = 000001, Comm = put
(PID.TID 0000.0001) //                bi = 000001, bj = 000002
(PID.TID 0000.0001) //        EAST: Tile = 000002, Process = 000001, Comm = put
(PID.TID 0000.0001) //                bi = 000001, bj = 000002
(PID.TID 0000.0001) //       SOUTH: Tile = 000001, Process = 000001, Comm = put
(PID.TID 0000.0001) //                bi = 000001, bj = 000001
(PID.TID 0000.0001) //       NORTH: Tile = 000001, Process = 000001, Comm = put
(PID.TID 0000.0001) //                bi = 000001, bj = 000001
(PID.TID 0000.0001) 
(PID.TID 0000.0001)  INI_PARMS: opening model parameter file "data"
(PID.TID 0000.0001)  OPEN_COPY_DATA_FILE: opening file data
(PID.TID 0000.0001) // =======================================================
(PID.TID 0000.0001) // Parameter file "data"
(PID.TID 0000.0001) // =======================================================
(PID.TID 0000.0001) ># ====================
(PID.TID 0000.0001) ># | Model parameters |
(PID.TID 0000.0001) ># ====================
(PID.TID 0000.0001) >#
(PID.TID 0000.0001) ># Continuous equation parameters
(PID.TID 0000.0001) > &PARM01
(PID.TID 0000.0001) > tRef=29.,28.,27.,26.,25.,24.,23.,22.,21.,20.,19.,18.,17.,16.,15.,10*0.,
(PID.TID 0000.0001) > viscAr=1.E-3,
(PID.TID 0000.0001) > viscA4=1.E11,
(PID.TID 0000.0001) > no_slip_sides=.FALSE.,
(PID.TID 0000.0001) > no_slip_bottom=.FALSE.,
(PID.TID 0000.0001) > diffKrT=3.E-5,
(PID.TID 0000.0001) > diffKrS=3.E-5,
(PID.TID 0000.0001) > diffKhT=0.E3,
(PID.TID 0000.0001) > diffKhS=0.E3,
(PID.TID 0000.0001) > beta=0.E-11,
(PID.TID 0000.0001) > f0  =1.E-4,
(PID.TID 0000.0001) > gravity=9.81,
(PID.TID 0000.0001) > eosType='LINEAR',
(PID.TID 0000.0001) > tAlpha=2.E-4,
(PID.TID 0000.0001) > sBeta =0.E-4,
(PID.TID 0000.0001) > rhoConst=1000.,
(PID.TID 0000.0001) > rhoNil=1000.,
(PID.TID 0000.0001) > rigidLid=.FALSE.,
(PID.TID 0000.0001) > implicitFreeSurface=.TRUE.,
(PID.TID 0000.0001) > implicitDiffusion=.TRUE.,
(PID.TID 0000.0001) > readBinaryPrec=64,
(PID.TID 0000.0001) > writeBinaryPrec=64,
(PID.TID 0000.0001) > /
(PID.TID 0000.0001) >
(PID.TID 0000.0001) ># Elliptic solver parameters
(PID.TID 0000.0001) > &PARM02
(PID.TID 0000.0001) > cg2dMaxIters=1000,
(PID.TID 0000.0001) > cg2dTargetResidual=1.E-13,
(PID.TID 0000.0001) > /
(PID.TID 0000.0001) >
(PID.TID 0000.0001) ># Time stepping parameters
(PID.TID 0000.0001) > &PARM03
(PID.TID 0000.0001) > startTime=0.,
(PID.TID 0000.0001) > nTimeSteps=20,
(PID.TID 0000.0001) > deltaT=1800.,
(PID.TID 0000.0001) > cAdjFreq=-1.,
(PID.TID 0000.0001) > abEps=0.1,
(PID.TID 0000.0001) > pChkptFreq=0.,
(PID.TID 0000.0001) > chkptFreq =0.,
(PID.TID 0000.0001) > dumpFreq=8640000.,
(PID.TID 0000.0001) > monitorSelect=1,
(PID.TID 0000.0001) > monitorFreq=1.,
(PID.TID 0000.0001) > /
(PID.TID 0000.0001) >
(PID.TID 0000.0001) ># Gridding parameters
(PID.TID 0000.0001) > &PARM04
(PID.TID 0000.0001) > usingCartesianGrid=.TRUE.,
(PID.TID 0000.0001) > delR= 50., 50., 55., 60., 65., 70., 80., 95.,
(PID.TID 0000.0001) >       120., 155., 200., 260., 320., 400., 480., 10*1.,
(PID.TID 0000.0001) > delX=1*10.E3,
(PID.TID 0000.0001) >#delY=32*10.E3,
(PID.TID 0000.0001) > delYfile='dy.bin',
(PID.TID 0000.0001) > /
(PID.TID 0000.0001) >
(PID.TID 0000.0001) ># Input datasets
(PID.TID 0000.0001) > &PARM05
(PID.TID 0000.0001) > hydrogThetaFile='theta.bin',
(PID.TID 0000.0001) > hydrogSaltFile ='salt.bin',
(PID.TID 0000.0001) > bathyFile      ='topog.bin',
(PID.TID 0000.0001) > /
(PID.TID 0000.0001) 
(PID.TID 0000.0001)  INI_PARMS ; starts to read PARM01
(PID.TID 0000.0001)  INI_PARMS ; read PARM01 : OK
(PID.TID 0000.0001)  INI_PARMS ; starts to read PARM02
(PID.TID 0000.0001)  INI_PARMS ; read PARM02 : OK
(PID.TID 0000.0001)  INI_PARMS ; starts to read PARM03
(PID.TID 0000.0001)  INI_PARMS ; read PARM03 : OK
(PID.TID 0000.0001)  INI_PARMS ; starts to read PARM04
(PID.TID 0000.0001)  INI_PARMS ; read PARM04 : OK
(PID.TID 0000.0001)  INI_PARMS ; starts to read PARM05
(PID.TID 0000.0001)  INI_PARMS ; read PARM05 : OK
(PID.TID 0000.0001)  INI_PARMS: finished reading file "data"
(PID.TID 0000.0001)  PACKAGES_BOOT: opening data.pkg
(PID.TID 0000.0001)  OPEN_COPY_DATA_FILE: opening file data.pkg
(PID.TID 0000.0001) // =======================================================
(PID.TID 0000.0001) // Parameter file "data.pkg"
(PID.TID 0000.0001) // =======================================================
(PID.TID 0000.0001) ># Packages
(PID.TID 0000.0001) > &PACKAGES
(PID.TID 0000.0001) >  useGMRedi=.TRUE.,
(PID.TID 0000.0001) >  useKPP=.FALSE.,
(PID.TID 0000.0001) > /
(PID.TID 0000.0001) 
(PID.TID 0000.0001)  PACKAGES_BOOT: finished reading data.pkg
(PID.TID 0000.0001)  GM_READPARMS: opening data.gmredi
(PID.TID 0000.0001)  OPEN_COPY_DATA_FILE: opening file data.gmredi
(PID.TID 0000.0001) // =======================================================
(PID.TID 0000.0001) // Parameter file "data.gmredi"
(PID.TID 0000.0001) // =======================================================
(PID.TID 0000.0001) ># GM-Redi parameters
(PID.TID 0000.0001) > &GM_PARM01
(PID.TID 0000.0001) > GM_background_K=1000.d0,
(PID.TID 0000.0001) ># GM_taper_scheme=' ',
(PID.TID 0000.0001) > GM_maxSlope=1.000000000000000E-02
(PID.TID 0000.0001) ># GM_Scrit,
(PID.TID 0000.0001) ># GM_Sd
(PID.TID 0000.0001) > /
(PID.TID 0000.0001) >
(PID.TID 0000.0001) 
(PID.TID 0000.0001)  GM_READPARMS: finished reading data.gmredi
(PID.TID 0000.0001) SET_PARMS: done
(PID.TID 0000.0001)  MDS_READVEC_LOC: open file: dy.bin
(PID.TID 0000.0001) S/R LOAD_GRID_SPACING: delY loaded from file: dy.bin
(PID.TID 0000.0001) Enter INI_VERTICAL_GRID: setInterFDr=    T ; setCenterDr=    F
(PID.TID 0000.0001) %MON XC_max                       =   5.0000000000000E+03
(PID.TID 0000.0001) %MON XC_min                       =   5.0000000000000E+03
(PID.TID 0000.0001) %MON XC_mean                      =   5.0000000000000E+03
(PID.TID 0000.0001) %MON XC_sd                        =   0.0000000000000E+00
(PID.TID 0000.0001) %MON XG_max                       =   0.0000000000000E+00
(PID.TID 0000.0001) %MON XG_min                       =   0.0000000000000E+00
(PID.TID 0000.0001) %MON XG_mean                      =   0.0000000000000E+00
(PID.TID 0000.0001) %MON XG_sd                        =   0.0000000000000E+00
(PID.TID 0000.0001) %MON DXC_max                      =   1.0000000000000E+04
(PID.TID 0000.0001) %MON DXC_min                      =   1.0000000000000E+04
(PID.TID 0000.0001) %MON DXC_mean                     =   1.0000000000000E+04
(PID.TID 0000.0001) %MON DXC_sd                       =   0.0000000000000E+00
(PID.TID 0000.0001) %MON DXF_max                      =   1.0000000000000E+04
(PID.TID 0000.0001) %MON DXF_min                      =   1.0000000000000E+04
(PID.TID 0000.0001) %MON DXF_mean                     =   1.0000000000000E+04
(PID.TID 0000.0001) %MON DXF_sd                       =   0.0000000000000E+00
(PID.TID 0000.0001) %MON DXG_max                      =   1.0000000000000E+04
(PID.TID 0000.0001) %MON DXG_min                      =   1.0000000000000E+04
(PID.TID 0000.0001) %MON DXG_mean                     =   1.0000000000000E+04
(PID.TID 0000.0001) %MON DXG_sd                       =   0.0000000000000E+00
(PID.TID 0000.0001) %MON DXV_max                      =   1.0000000000000E+04
(PID.TID 0000.0001) %MON DXV_min                      =   1.0000000000000E+04
(PID.TID 0000.0001) %MON DXV_mean                     =   1.0000000000000E+04
(PID.TID 0000.0001) %MON DXV_sd                       =   0.0000000000000E+00
(PID.TID 0000.0001) %MON YC_max                       =   3.1561290774894E+05
(PID.TID 0000.0001) %MON YC_min                       =   5.6092274511694E+03
(PID.TID 0000.0001) %MON YC_mean                      =   1.6001915336715E+05
(PID.TID 0000.0001) %MON YC_sd                        =   8.8599616236208E+04
(PID.TID 0000.0001) %MON YG_max                       =   3.1000000000000E+05
(PID.TID 0000.0001) %MON YG_min                       =  -1.8189894035459E-12
(PID.TID 0000.0001) %MON YG_mean                      =   1.5500000000000E+05
(PID.TID 0000.0001) %MON YG_sd                        =   8.8567978698292E+04
(PID.TID 0000.0001) %MON DYC_max                      =   1.1222135200113E+04
(PID.TID 0000.0001) %MON DYC_min                      =   7.9032603032250E+03
(PID.TID 0000.0001) %MON DYC_mean                     =   1.0038306734309E+04
(PID.TID 0000.0001) %MON DYC_sd                       =   1.1846105766688E+03
(PID.TID 0000.0001) %MON DYF_max                      =   1.1225815497888E+04
(PID.TID 0000.0001) %MON DYF_min                      =   7.8626243792479E+03
(PID.TID 0000.0001) %MON DYF_mean                     =   1.0038306734309E+04
(PID.TID 0000.0001) %MON DYF_sd                       =   1.1918760120598E+03
(PID.TID 0000.0001) %MON DYG_max                      =   1.1225815497888E+04
(PID.TID 0000.0001) %MON DYG_min                      =   7.8626243792479E+03
(PID.TID 0000.0001) %MON DYG_mean                     =   1.0038306734309E+04
(PID.TID 0000.0001) %MON DYG_sd                       =   1.1918760120598E+03
(PID.TID 0000.0001) %MON DYU_max                      =   1.1222135200113E+04
(PID.TID 0000.0001) %MON DYU_min                      =   7.9032603032250E+03
(PID.TID 0000.0001) %MON DYU_mean                     =   1.0038306734309E+04
(PID.TID 0000.0001) %MON DYU_sd                       =   1.1846105766688E+03
(PID.TID 0000.0001) %MON RA_max                       =   1.1225815497888E+08
(PID.TID 0000.0001) %MON RA_min                       =   7.8626243792479E+07
(PID.TID 0000.0001) %MON RA_mean                      =   1.0038306734309E+08
(PID.TID 0000.0001) %MON RA_sd                        =   1.1918760120598E+07
(PID.TID 0000.0001) %MON RAW_max                      =   1.1225815497888E+08
(PID.TID 0000.0001) %MON RAW_min                      =   7.8626243792479E+07
(PID.TID 0000.0001) %MON RAW_mean                     =   1.0038306734309E+08
(PID.TID 0000.0001) %MON RAW_sd                       =   1.1918760120598E+07
(PID.TID 0000.0001) %MON RAS_max                      =   1.1222135200113E+08
(PID.TID 0000.0001) %MON RAS_min                      =   7.9032603032250E+07
(PID.TID 0000.0001) %MON RAS_mean                     =   1.0038306734309E+08
(PID.TID 0000.0001) %MON RAS_sd                       =   1.1846105766688E+07
(PID.TID 0000.0001) %MON RAZ_max                      =   1.1222135200113E+08
(PID.TID 0000.0001) %MON RAZ_min                      =   7.9032603032250E+07
(PID.TID 0000.0001) %MON RAZ_mean                     =   1.0038306734309E+08
(PID.TID 0000.0001) %MON RAZ_sd                       =   1.1846105766688E+07
(PID.TID 0000.0001) %MON AngleCS_max                  =   1.0000000000000E+00
(PID.TID 0000.0001) %MON AngleCS_min                  =   1.0000000000000E+00
(PID.TID 0000.0001) %MON AngleCS_mean                 =   1.0000000000000E+00
(PID.TID 0000.0001) %MON AngleCS_sd                   =   0.0000000000000E+00
(PID.TID 0000.0001) %MON AngleSN_max                  =   0.0000000000000E+00
(PID.TID 0000.0001) %MON AngleSN_min                  =   0.0000000000000E+00
(PID.TID 0000.0001) %MON AngleSN_mean                 =   0.0000000000000E+00
(PID.TID 0000.0001) %MON AngleSN_sd                   =   0.0000000000000E+00
(PID.TID 0000.0001)  MDS_READ_FIELD: opening global file: topog.bin
(PID.TID 0000.0001) // =======================================================
(PID.TID 0000.0001) // Field Model R_low (ini_masks_etc)
(PID.TID 0000.0001) // CMIN =         -2.460000000000000E+03
(PID.TID 0000.0001) // CMAX =         -2.460000000000000E+03
(PID.TID 0000.0001) // CINT =          0.000000000000000E+00
(PID.TID 0000.0001) // SYMBOLS (CMIN->CMAX): -abcdefghijklmnopqrstuvwxyz+
(PID.TID 0000.0001) //                  0.0: .
(PID.TID 0000.0001) // RANGE I (Lo:Hi:Step):(    -2:     4:     1)
(PID.TID 0000.0001) // RANGE J (Lo:Hi:Step):(    35:    -2:    -1)
(PID.TID 0000.0001) // RANGE K (Lo:Hi:Step):(   1:   1:   1)
(PID.TID 0000.0001) // =======================================================
(PID.TID 0000.0001) // =======================================================
(PID.TID 0000.0001) // END OF FIELD                                          =
(PID.TID 0000.0001) // =======================================================
(PID.TID 0000.0001) 
(PID.TID 0000.0001) // =======================================================
(PID.TID 0000.0001) // Field Model Ro_surf (ini_masks_etc)
(PID.TID 0000.0001) // CMIN =          1.000000000000000E+32
(PID.TID 0000.0001) // CMAX =         -1.000000000000000E+32
(PID.TID 0000.0001) // CINT =          0.000000000000000E+00
(PID.TID 0000.0001) // SYMBOLS (CMIN->CMAX): -abcdefghijklmnopqrstuvwxyz+
(PID.TID 0000.0001) //                  0.0: .
(PID.TID 0000.0001) // RANGE I (Lo:Hi:Step):(    -2:     4:     1)
(PID.TID 0000.0001) // RANGE J (Lo:Hi:Step):(    35:    -2:    -1)
(PID.TID 0000.0001) // RANGE K (Lo:Hi:Step):(   1:   1:   1)
(PID.TID 0000.0001) // =======================================================
(PID.TID 0000.0001) // =======================================================
(PID.TID 0000.0001) // END OF FIELD                                          =
(PID.TID 0000.0001) // =======================================================
(PID.TID 0000.0001) 
(PID.TID 0000.0001) // =======================================================
(PID.TID 0000.0001) // Field hFacC at iteration          0
(PID.TID 0000.0001) // CMIN =          1.000000000000000E+00
(PID.TID 0000.0001) // CMAX =          1.000000000000000E+00
(PID.TID 0000.0001) // CINT =          0.000000000000000E+00
(PID.TID 0000.0001) // SYMBOLS (CMIN->CMAX): -abcdefghijklmnopqrstuvwxyz+
(PID.TID 0000.0001) //                  0.0: .
(PID.TID 0000.0001) // RANGE I (Lo:Hi:Step):(    -2:     4:     1)
(PID.TID 0000.0001) // RANGE J (Lo:Hi:Step):(    35:    -2:    -1)
(PID.TID 0000.0001) // RANGE K (Lo:Hi:Step):(   1:   1:   1)
(PID.TID 0000.0001) // =======================================================
(PID.TID 0000.0001) // =======================================================
(PID.TID 0000.0001) // END OF FIELD                                          =
(PID.TID 0000.0001) // =======================================================
(PID.TID 0000.0001) 
(PID.TID 0000.0001) // =======================================================
(PID.TID 0000.0001) // Field hFacW at iteration          0
(PID.TID 0000.0001) // CMIN =          1.000000000000000E+00
(PID.TID 0000.0001) // CMAX =          1.000000000000000E+00
(PID.TID 0000.0001) // CINT =          0.000000000000000E+00
(PID.TID 0000.0001) // SYMBOLS (CMIN->CMAX): -abcdefghijklmnopqrstuvwxyz+
(PID.TID 0000.0001) //                  0.0: .
(PID.TID 0000.0001) // RANGE I (Lo:Hi:Step):(    -2:     4:     1)
(PID.TID 0000.0001) // RANGE J (Lo:Hi:Step):(    35:    -2:    -1)
(PID.TID 0000.0001) // RANGE K (Lo:Hi:Step):(   1:   1:   1)
(PID.TID 0000.0001) // =======================================================
(PID.TID 0000.0001) // =======================================================
(PID.TID 0000.0001) // END OF FIELD                                          =
(PID.TID 0000.0001) // =======================================================
(PID.TID 0000.0001) 
(PID.TID 0000.0001) // =======================================================
(PID.TID 0000.0001) // Field hFacS at iteration          0
(PID.TID 0000.0001) // CMIN =          1.000000000000000E+00
(PID.TID 0000.0001) // CMAX =          1.000000000000000E+00
(PID.TID 0000.0001) // CINT =          0.000000000000000E+00
(PID.TID 0000.0001) // SYMBOLS (CMIN->CMAX): -abcdefghijklmnopqrstuvwxyz+
(PID.TID 0000.0001) //                  0.0: .
(PID.TID 0000.0001) // RANGE I (Lo:Hi:Step):(    -2:     4:     1)
(PID.TID 0000.0001) // RANGE J (Lo:Hi:Step):(    35:    -2:    -1)
(PID.TID 0000.0001) // RANGE K (Lo:Hi:Step):(   1:   1:   1)
(PID.TID 0000.0001) // =======================================================
(PID.TID 0000.0001) // =======================================================
(PID.TID 0000.0001) // END OF FIELD                                          =
(PID.TID 0000.0001) // =======================================================
(PID.TID 0000.0001) 
(PID.TID 0000.0001) GAD_INIT_FIXED: GAD_OlMinSize=  1  0  1
(PID.TID 0000.0001) 
(PID.TID 0000.0001) // ===================================
(PID.TID 0000.0001) // GAD parameters :
(PID.TID 0000.0001) // ===================================
(PID.TID 0000.0001) tempAdvScheme =   /* Temp. Horiz.Advection scheme selector */
(PID.TID 0000.0001)                       2
(PID.TID 0000.0001)     ;
(PID.TID 0000.0001) tempVertAdvScheme =   /* Temp. Vert. Advection scheme selector */
(PID.TID 0000.0001)                       2
(PID.TID 0000.0001)     ;
(PID.TID 0000.0001) tempMultiDimAdvec =   /* use Muti-Dim Advec method for Temp */
(PID.TID 0000.0001)                   F
(PID.TID 0000.0001)     ;
(PID.TID 0000.0001) tempSOM_Advection = /* use 2nd Order Moment Advection for Temp */
(PID.TID 0000.0001)                   F
(PID.TID 0000.0001)     ;
(PID.TID 0000.0001) AdamsBashforthGt = /* apply Adams-Bashforth extrapolation on Gt */
(PID.TID 0000.0001)                   T
(PID.TID 0000.0001)     ;
(PID.TID 0000.0001) AdamsBashforth_T = /* apply Adams-Bashforth extrapolation on Temp */
(PID.TID 0000.0001)                   F
(PID.TID 0000.0001)     ;
(PID.TID 0000.0001) saltAdvScheme =   /* Salt. Horiz.advection scheme selector */
(PID.TID 0000.0001)                       2
(PID.TID 0000.0001)     ;
(PID.TID 0000.0001) saltVertAdvScheme =   /* Salt. Vert. Advection scheme selector */
(PID.TID 0000.0001)                       2
(PID.TID 0000.0001)     ;
(PID.TID 0000.0001) saltMultiDimAdvec =   /* use Muti-Dim Advec method for Salt */
(PID.TID 0000.0001)                   F
(PID.TID 0000.0001)     ;
(PID.TID 0000.0001) saltSOM_Advection = /* use 2nd Order Moment Advection for Salt */
(PID.TID 0000.0001)                   F
(PID.TID 0000.0001)     ;
(PID.TID 0000.0001) AdamsBashforthGs = /* apply Adams-Bashforth extrapolation on Gs */
(PID.TID 0000.0001)                   T
(PID.TID 0000.0001)     ;
(PID.TID 0000.0001) AdamsBashforth_S = /* apply Adams-Bashforth extrapolation on Salt */
(PID.TID 0000.0001)                   F
(PID.TID 0000.0001)     ;
(PID.TID 0000.0001) // ===================================
(PID.TID 0000.0001) %MON fCori_max                    =   1.0000000000000E-04
(PID.TID 0000.0001) %MON fCori_min                    =   1.0000000000000E-04
(PID.TID 0000.0001) %MON fCori_mean                   =   1.0000000000000E-04
(PID.TID 0000.0001) %MON fCori_sd                     =   2.7105054312138E-20
(PID.TID 0000.0001) %MON fCoriG_max                   =   1.0000000000000E-04
(PID.TID 0000.0001) %MON fCoriG_min                   =   1.0000000000000E-04
(PID.TID 0000.0001) %MON fCoriG_mean                  =   1.0000000000000E-04
(PID.TID 0000.0001) %MON fCoriG_sd                    =   2.7105054312138E-20
(PID.TID 0000.0001) %MON fCoriCos_max                 =   0.0000000000000E+00
(PID.TID 0000.0001) %MON fCoriCos_min                 =   0.0000000000000E+00
(PID.TID 0000.0001) %MON fCoriCos_mean                =   0.0000000000000E+00
(PID.TID 0000.0001) %MON fCoriCos_sd                  =   0.0000000000000E+00
(PID.TID 0000.0001) INI_CG2D: CG2D normalisation factor =  3.2127074403353543E-04
(PID.TID 0000.0001) 
(PID.TID 0000.0001) // =======================================================
(PID.TID 0000.0001) // Model configuration
(PID.TID 0000.0001) // =======================================================
(PID.TID 0000.0001) //
(PID.TID 0000.0001) // "Physical" paramters ( PARM01 in namelist )
(PID.TID 0000.0001) //
(PID.TID 0000.0001) buoyancyRelation = /* Type of relation to get Buoyancy */
(PID.TID 0000.0001)               'OCEANIC'
(PID.TID 0000.0001)     ;
(PID.TID 0000.0001) fluidIsAir   =  /* fluid major constituent is Air */
(PID.TID 0000.0001)                   F
(PID.TID 0000.0001)     ;
(PID.TID 0000.0001) fluidIsWater =  /* fluid major constituent is Water */
(PID.TID 0000.0001)                   T
(PID.TID 0000.0001)     ;
(PID.TID 0000.0001) usingPCoords =  /* use p (or p*) vertical coordinate */
(PID.TID 0000.0001)                   F
(PID.TID 0000.0001)     ;
(PID.TID 0000.0001) usingZCoords =  /* use z (or z*) vertical coordinate */
(PID.TID 0000.0001)                   T
(PID.TID 0000.0001)     ;
(PID.TID 0000.0001) tRef =   /* Reference temperature profile ( oC or K ) */
(PID.TID 0000.0001)                 2.900000000000000E+01,      /* K =  1 */
(PID.TID 0000.0001)                 2.800000000000000E+01,      /* K =  2 */
(PID.TID 0000.0001)                 2.700000000000000E+01,      /* K =  3 */
(PID.TID 0000.0001)                 2.600000000000000E+01,      /* K =  4 */
(PID.TID 0000.0001)                 2.500000000000000E+01,      /* K =  5 */
(PID.TID 0000.0001)                 2.400000000000000E+01,      /* K =  6 */
(PID.TID 0000.0001)                 2.300000000000000E+01,      /* K =  7 */
(PID.TID 0000.0001)                 2.200000000000000E+01,      /* K =  8 */
(PID.TID 0000.0001)                 2.100000000000000E+01,      /* K =  9 */
(PID.TID 0000.0001)                 2.000000000000000E+01,      /* K = 10 */
(PID.TID 0000.0001)                 1.900000000000000E+01,      /* K = 11 */
(PID.TID 0000.0001)                 1.800000000000000E+01,      /* K = 12 */
(PID.TID 0000.0001)                 1.700000000000000E+01,      /* K = 13 */
(PID.TID 0000.0001)                 1.600000000000000E+01,      /* K = 14 */
(PID.TID 0000.0001)                 1.500000000000000E+01,      /* K = 15 */
(PID.TID 0000.0001)    10 @  0.000000000000000E+00              /* K = 16: 25 */
(PID.TID 0000.0001)     ;
(PID.TID 0000.0001) sRef =   /* Reference salinity profile ( psu ) */
(PID.TID 0000.0001)    25 @  3.000000000000000E+01              /* K =  1: 25 */
(PID.TID 0000.0001)     ;
(PID.TID 0000.0001) viscAh  =   /* Lateral eddy viscosity ( m^2/s ) */
(PID.TID 0000.0001)                 0.000000000000000E+00
(PID.TID 0000.0001)     ;
(PID.TID 0000.0001) viscAhMax = /* Maximum lateral eddy viscosity ( m^2/s ) */
(PID.TID 0000.0001)                 1.000000000000000E+21
(PID.TID 0000.0001)     ;
(PID.TID 0000.0001) viscAhGrid = /* Grid dependent lateral eddy viscosity ( non-dim. ) */
(PID.TID 0000.0001)                 0.000000000000000E+00
(PID.TID 0000.0001)     ;
(PID.TID 0000.0001) useFullLeith = /* Use Full Form of Leith Viscosity on/off flag*/
(PID.TID 0000.0001)                   F
(PID.TID 0000.0001)     ;
(PID.TID 0000.0001) useStrainTensionVisc= /* Use StrainTension Form of Viscous Operator flag*/
(PID.TID 0000.0001)                   F
(PID.TID 0000.0001)     ;
(PID.TID 0000.0001) useAreaViscLength = /* Use area for visc length instead of geom. mean*/
(PID.TID 0000.0001)                   F
(PID.TID 0000.0001)     ;
(PID.TID 0000.0001) viscC2leith = /* Leith harmonic visc. factor (on grad(vort),non-dim.) */
(PID.TID 0000.0001)                 0.000000000000000E+00
(PID.TID 0000.0001)     ;
(PID.TID 0000.0001) viscC2leithD = /* Leith harmonic viscosity factor (on grad(div),non-dim.)*/
(PID.TID 0000.0001)                 0.000000000000000E+00
(PID.TID 0000.0001)     ;
(PID.TID 0000.0001) viscC2smag = /* Smagorinsky harmonic viscosity factor (non-dim.) */
(PID.TID 0000.0001)                 0.000000000000000E+00
(PID.TID 0000.0001)     ;
(PID.TID 0000.0001) viscA4  =   /* Lateral biharmonic viscosity ( m^4/s ) */
(PID.TID 0000.0001)                 1.000000000000000E+11
(PID.TID 0000.0001)     ;
(PID.TID 0000.0001) viscA4Max = /* Maximum biharmonic viscosity ( m^2/s ) */
(PID.TID 0000.0001)                 1.000000000000000E+21
(PID.TID 0000.0001)     ;
(PID.TID 0000.0001) viscA4Grid = /* Grid dependent biharmonic viscosity ( non-dim. ) */
(PID.TID 0000.0001)                 0.000000000000000E+00
(PID.TID 0000.0001)     ;
(PID.TID 0000.0001) viscC4leith = /* Leith biharm viscosity factor (on grad(vort), non-dim.)*/
(PID.TID 0000.0001)                 0.000000000000000E+00
(PID.TID 0000.0001)     ;
(PID.TID 0000.0001) viscC4leithD = /* Leith biharm viscosity factor (on grad(div), non-dim.) */
(PID.TID 0000.0001)                 0.000000000000000E+00
(PID.TID 0000.0001)     ;
(PID.TID 0000.0001) viscC4Smag = /* Smagorinsky biharm viscosity factor (non-dim) */
(PID.TID 0000.0001)                 0.000000000000000E+00
(PID.TID 0000.0001)     ;
(PID.TID 0000.0001) no_slip_sides =  /* Viscous BCs: No-slip sides */
(PID.TID 0000.0001)                   F
(PID.TID 0000.0001)     ;
(PID.TID 0000.0001) sideDragFactor = /* side-drag scaling factor (non-dim) */
(PID.TID 0000.0001)                 2.000000000000000E+00
(PID.TID 0000.0001)     ;
(PID.TID 0000.0001) viscArNr = /* vertical profile of vertical viscosity ( m^2/s )*/
(PID.TID 0000.0001)    25 @  1.000000000000000E-03              /* K =  1: 25 */
(PID.TID 0000.0001)     ;
(PID.TID 0000.0001) no_slip_bottom =  /* Viscous BCs: No-slip bottom */
(PID.TID 0000.0001)                   F
(PID.TID 0000.0001)     ;
(PID.TID 0000.0001) bottomDragLinear = /* linear bottom-drag coefficient ( m/s ) */
(PID.TID 0000.0001)                 0.000000000000000E+00
(PID.TID 0000.0001)     ;
(PID.TID 0000.0001) bottomDragQuadratic = /* quadratic bottom-drag coefficient (-) */
(PID.TID 0000.0001)                 0.000000000000000E+00
(PID.TID 0000.0001)     ;
(PID.TID 0000.0001) diffKhT =   /* Laplacian diffusion of heat laterally ( m^2/s ) */
(PID.TID 0000.0001)                 0.000000000000000E+00
(PID.TID 0000.0001)     ;
(PID.TID 0000.0001) diffK4T =   /* Biharmonic diffusion of heat laterally ( m^4/s ) */
(PID.TID 0000.0001)                 0.000000000000000E+00
(PID.TID 0000.0001)     ;
(PID.TID 0000.0001) diffKhS =   /* Laplacian diffusion of salt laterally ( m^2/s ) */
(PID.TID 0000.0001)                 0.000000000000000E+00
(PID.TID 0000.0001)     ;
(PID.TID 0000.0001) diffK4S =   /* Biharmonic diffusion of salt laterally ( m^4/s ) */
(PID.TID 0000.0001)                 0.000000000000000E+00
(PID.TID 0000.0001)     ;
(PID.TID 0000.0001) diffKrNrT = /* vertical profile of vertical diffusion of Temp ( m^2/s )*/
(PID.TID 0000.0001)    25 @  3.000000000000000E-05              /* K =  1: 25 */
(PID.TID 0000.0001)     ;
(PID.TID 0000.0001) diffKrNrS = /* vertical profile of vertical diffusion of Salt ( m^2/s )*/
(PID.TID 0000.0001)    25 @  3.000000000000000E-05              /* K =  1: 25 */
(PID.TID 0000.0001)     ;
(PID.TID 0000.0001) diffKrBL79surf = /* Surface diffusion for Bryan and Lewis 79 ( m^2/s ) */
(PID.TID 0000.0001)                 0.000000000000000E+00
(PID.TID 0000.0001)     ;
(PID.TID 0000.0001) diffKrBL79deep = /* Deep diffusion for Bryan and Lewis 1979 ( m^2/s ) */
(PID.TID 0000.0001)                 0.000000000000000E+00
(PID.TID 0000.0001)     ;
(PID.TID 0000.0001) diffKrBL79scl = /* Depth scale for Bryan and Lewis 1979 ( m ) */
(PID.TID 0000.0001)                 2.000000000000000E+02
(PID.TID 0000.0001)     ;
(PID.TID 0000.0001) diffKrBL79Ho = /* Turning depth for Bryan and Lewis 1979 ( m ) */
(PID.TID 0000.0001)                -2.000000000000000E+03
(PID.TID 0000.0001)     ;
(PID.TID 0000.0001) ivdc_kappa = /* Implicit Vertical Diffusivity for Convection ( m^2/s) */
(PID.TID 0000.0001)                 0.000000000000000E+00
(PID.TID 0000.0001)     ;
(PID.TID 0000.0001) hMixCriteria=  /* Criteria for mixed-layer diagnostic */
(PID.TID 0000.0001)                -8.000000000000000E-01
(PID.TID 0000.0001)     ;
(PID.TID 0000.0001) dRhoSmall =  /* Parameter for mixed-layer diagnostic */
(PID.TID 0000.0001)                 1.000000000000000E-06
(PID.TID 0000.0001)     ;
(PID.TID 0000.0001) hMixSmooth=  /* Smoothing parameter for mixed-layer diagnostic */
(PID.TID 0000.0001)                 0.000000000000000E+00
(PID.TID 0000.0001)     ;
(PID.TID 0000.0001) eosType =  /* Type of Equation of State */
(PID.TID 0000.0001)               'LINEAR'
(PID.TID 0000.0001)     ;
(PID.TID 0000.0001) tAlpha =   /* Linear EOS thermal expansion coefficient ( 1/oC ) */
(PID.TID 0000.0001)                 2.000000000000000E-04
(PID.TID 0000.0001)     ;
(PID.TID 0000.0001) sBeta =   /* Linear EOS haline contraction coefficient ( 1/psu ) */
(PID.TID 0000.0001)                 0.000000000000000E+00
(PID.TID 0000.0001)     ;
(PID.TID 0000.0001) rhonil =   /* Reference density ( kg/m^3 ) */
(PID.TID 0000.0001)                 1.000000000000000E+03
(PID.TID 0000.0001)     ;
(PID.TID 0000.0001) rhoConst =   /* Reference density ( kg/m^3 ) */
(PID.TID 0000.0001)                 1.000000000000000E+03
(PID.TID 0000.0001)     ;
(PID.TID 0000.0001) rhoFacC = /* normalized Reference density @ cell-Center (-) */
(PID.TID 0000.0001)    25 @  1.000000000000000E+00              /* K =  1: 25 */
(PID.TID 0000.0001)     ;
(PID.TID 0000.0001) rhoFacF = /* normalized Reference density @ W-Interface (-) */
(PID.TID 0000.0001)    26 @  1.000000000000000E+00              /* K =  1: 26 */
(PID.TID 0000.0001)     ;
(PID.TID 0000.0001) rhoConstFresh =   /* Reference density ( kg/m^3 ) */
(PID.TID 0000.0001)                 1.000000000000000E+03
(PID.TID 0000.0001)     ;
(PID.TID 0000.0001) gravity =   /* Gravitational acceleration ( m/s^2 ) */
(PID.TID 0000.0001)                 9.810000000000000E+00
(PID.TID 0000.0001)     ;
(PID.TID 0000.0001) gBaro =   /* Barotropic gravity ( m/s^2 ) */
(PID.TID 0000.0001)                 9.810000000000000E+00
(PID.TID 0000.0001)     ;
(PID.TID 0000.0001) rotationPeriod =   /* Rotation Period ( s ) */
(PID.TID 0000.0001)                 8.616400000000000E+04
(PID.TID 0000.0001)     ;
(PID.TID 0000.0001) omega =   /* Angular velocity ( rad/s ) */
(PID.TID 0000.0001)                 7.292123516990375E-05
(PID.TID 0000.0001)     ;
(PID.TID 0000.0001) f0 =   /* Reference coriolis parameter ( 1/s ) */
(PID.TID 0000.0001)                 1.000000000000000E-04
(PID.TID 0000.0001)     ;
(PID.TID 0000.0001) beta =   /* Beta ( 1/(m.s) ) */
(PID.TID 0000.0001)                 0.000000000000000E+00
(PID.TID 0000.0001)     ;
(PID.TID 0000.0001) fPrime =   /* Second coriolis parameter ( 1/s ) */
(PID.TID 0000.0001)                 0.000000000000000E+00
(PID.TID 0000.0001)     ;
(PID.TID 0000.0001) rigidLid =   /* Rigid lid on/off flag */
(PID.TID 0000.0001)                   F
(PID.TID 0000.0001)     ;
(PID.TID 0000.0001) implicitFreeSurface =   /* Implicit free surface on/off flag */
(PID.TID 0000.0001)                   T
(PID.TID 0000.0001)     ;
(PID.TID 0000.0001) freeSurfFac =   /* Implicit free surface factor */
(PID.TID 0000.0001)                 1.000000000000000E+00
(PID.TID 0000.0001)     ;
(PID.TID 0000.0001) implicSurfPress =  /* Surface Pressure implicit factor (0-1)*/
(PID.TID 0000.0001)                 1.000000000000000E+00
(PID.TID 0000.0001)     ;
(PID.TID 0000.0001) implicDiv2Dflow =  /* Barot. Flow Div. implicit factor (0-1)*/
(PID.TID 0000.0001)                 1.000000000000000E+00
(PID.TID 0000.0001)     ;
(PID.TID 0000.0001) exactConserv =  /* Exact Volume Conservation on/off flag*/
(PID.TID 0000.0001)                   F
(PID.TID 0000.0001)     ;
(PID.TID 0000.0001) linFSConserveTr = /* Tracer correction for Lin Free Surface on/off flag*/
(PID.TID 0000.0001)                   F
(PID.TID 0000.0001)     ;
(PID.TID 0000.0001) uniformLin_PhiSurf = /* use uniform Bo_surf on/off flag*/
(PID.TID 0000.0001)                   T
(PID.TID 0000.0001)     ;
(PID.TID 0000.0001) hFacMin =   /* minimum partial cell factor (hFac) */
(PID.TID 0000.0001)                 1.000000000000000E+00
(PID.TID 0000.0001)     ;
(PID.TID 0000.0001) hFacMinDr = /* minimum partial cell thickness ( m) */
(PID.TID 0000.0001)                 1.000000000000000E+00
(PID.TID 0000.0001)     ;
(PID.TID 0000.0001) nonlinFreeSurf = /* Non-linear Free Surf. options (-1,0,1,2,3)*/
(PID.TID 0000.0001)                       0
(PID.TID 0000.0001)      -1,0= Off ; 1,2,3= On, 2=+rescale gU,gV, 3=+update cg2d solv.
(PID.TID 0000.0001)     ;
(PID.TID 0000.0001) hFacInf =   /* lower threshold for hFac (nonlinFreeSurf only)*/
(PID.TID 0000.0001)                 2.000000000000000E-01
(PID.TID 0000.0001)     ;
(PID.TID 0000.0001) hFacSup =   /* upper threshold for hFac (nonlinFreeSurf only)*/
(PID.TID 0000.0001)                 2.000000000000000E+00
(PID.TID 0000.0001)     ;
(PID.TID 0000.0001) select_rStar = /* r* Vertical coord. options (=0 r coord.; >0 uses r*)*/
(PID.TID 0000.0001)                       0
(PID.TID 0000.0001)     ;
(PID.TID 0000.0001) selectAddFluid = /* option for mass source/sink of fluid (=0: off) */
(PID.TID 0000.0001)                       0
(PID.TID 0000.0001)     ;
(PID.TID 0000.0001) useRealFreshWaterFlux = /* Real Fresh Water Flux on/off flag*/
(PID.TID 0000.0001)                   F
(PID.TID 0000.0001)     ;
(PID.TID 0000.0001) temp_EvPrRn = /* Temp. of Evap/Prec/R (UNSET=use local T)(oC)*/
(PID.TID 0000.0001)                 1.234567000000000E+05
(PID.TID 0000.0001)     ;
(PID.TID 0000.0001) salt_EvPrRn = /* Salin. of Evap/Prec/R (UNSET=use local S)(psu)*/
(PID.TID 0000.0001)                 0.000000000000000E+00
(PID.TID 0000.0001)     ;
(PID.TID 0000.0001) temp_addMass = /* Temp. of addMass array (UNSET=use local T)(oC)*/
(PID.TID 0000.0001)                 1.234567000000000E+05
(PID.TID 0000.0001)     ;
(PID.TID 0000.0001) salt_addMass = /* Salin. of addMass array (UNSET=use local S)(psu)*/
(PID.TID 0000.0001)                 0.000000000000000E+00
(PID.TID 0000.0001)     ;
(PID.TID 0000.0001) convertFW2Salt = /* convert F.W. Flux to Salt Flux (-1=use local S)(psu)*/
(PID.TID 0000.0001)                 3.500000000000000E+01
(PID.TID 0000.0001)     ;
(PID.TID 0000.0001) use3Dsolver = /* use 3-D pressure solver on/off flag */
(PID.TID 0000.0001)                   F
(PID.TID 0000.0001)     ;
(PID.TID 0000.0001) nonHydrostatic =  /* Non-Hydrostatic on/off flag */
(PID.TID 0000.0001)                   F
(PID.TID 0000.0001)     ;
(PID.TID 0000.0001) nh_Am2 = /* Non-Hydrostatic terms scaling factor */
(PID.TID 0000.0001)                 1.000000000000000E+00
(PID.TID 0000.0001)     ;
(PID.TID 0000.0001) implicitNHPress = /* Non-Hyd Pressure implicit factor (0-1)*/
(PID.TID 0000.0001)                 1.000000000000000E+00
(PID.TID 0000.0001)     ;
(PID.TID 0000.0001) selectNHfreeSurf = /* Non-Hyd (free-)Surface option */
(PID.TID 0000.0001)                       0
(PID.TID 0000.0001)     ;
(PID.TID 0000.0001) quasiHydrostatic = /* Quasi-Hydrostatic on/off flag */
(PID.TID 0000.0001)                   F
(PID.TID 0000.0001)     ;
(PID.TID 0000.0001) momStepping =  /* Momentum equation on/off flag */
(PID.TID 0000.0001)                   T
(PID.TID 0000.0001)     ;
(PID.TID 0000.0001) vectorInvariantMomentum= /* Vector-Invariant Momentum on/off */
(PID.TID 0000.0001)                   F
(PID.TID 0000.0001)     ;
(PID.TID 0000.0001) momAdvection =  /* Momentum advection on/off flag */
(PID.TID 0000.0001)                   T
(PID.TID 0000.0001)     ;
(PID.TID 0000.0001) momViscosity =  /* Momentum viscosity on/off flag */
(PID.TID 0000.0001)                   T
(PID.TID 0000.0001)     ;
(PID.TID 0000.0001) momImplVertAdv= /* Momentum implicit vert. advection on/off*/
(PID.TID 0000.0001)                   F
(PID.TID 0000.0001)     ;
(PID.TID 0000.0001) implicitViscosity = /* Implicit viscosity on/off flag */
(PID.TID 0000.0001)                   F
(PID.TID 0000.0001)     ;
(PID.TID 0000.0001) metricTerms =  /* metric-Terms on/off flag */
(PID.TID 0000.0001)                   F
(PID.TID 0000.0001)     ;
(PID.TID 0000.0001) useNHMTerms = /* Non-Hydrostatic Metric-Terms on/off */
(PID.TID 0000.0001)                   F
(PID.TID 0000.0001)     ;
(PID.TID 0000.0001) selectCoriMap = /* Coriolis Map options (0,1,2,3)*/
(PID.TID 0000.0001)                       1
(PID.TID 0000.0001)     0= f-Plane ; 1= Beta-Plane ; 2= Spherical ; 3= read from file
(PID.TID 0000.0001)     ;
(PID.TID 0000.0001) use3dCoriolis = /* 3-D Coriolis on/off flag */
(PID.TID 0000.0001)                   F
(PID.TID 0000.0001)     ;
(PID.TID 0000.0001) useCoriolis =  /* Coriolis on/off flag */
(PID.TID 0000.0001)                   T
(PID.TID 0000.0001)     ;
(PID.TID 0000.0001) useCDscheme =  /* CD scheme on/off flag */
(PID.TID 0000.0001)                   F
(PID.TID 0000.0001)     ;
(PID.TID 0000.0001) useEnergyConservingCoriolis= /* Flx-Form Coriolis scheme flag */
(PID.TID 0000.0001)                   F
(PID.TID 0000.0001)     ;
(PID.TID 0000.0001) useJamartWetPoints= /* Coriolis WetPoints method flag */
(PID.TID 0000.0001)                   F
(PID.TID 0000.0001)     ;
(PID.TID 0000.0001) useJamartMomAdv= /* V.I Non-linear terms Jamart flag */
(PID.TID 0000.0001)                   F
(PID.TID 0000.0001)     ;
(PID.TID 0000.0001) useAbsVorticity= /* V.I Works with f+zeta in Coriolis */
(PID.TID 0000.0001)                   F
(PID.TID 0000.0001)     ;
(PID.TID 0000.0001) selectVortScheme= /* V.I Scheme selector for Vorticity-Term */
(PID.TID 0000.0001)               123456789
(PID.TID 0000.0001)    = 0 : enstrophy (Shallow-Water Eq.) conserving scheme by Sadourny, JAS 75
(PID.TID 0000.0001)    = 1 : same as 0 with modified hFac
(PID.TID 0000.0001)    = 2 : energy conserving scheme (used by Sadourny in JAS 75 paper)
(PID.TID 0000.0001)    = 3 : energy (general) and enstrophy (2D, nonDiv.) conserving scheme
(PID.TID 0000.0001)          from Sadourny (Burridge & Haseler, ECMWF Rep.4, 1977)
(PID.TID 0000.0001)     ;
(PID.TID 0000.0001) upwindVorticity= /* V.I Upwind bias vorticity flag */
(PID.TID 0000.0001)                   F
(PID.TID 0000.0001)     ;
(PID.TID 0000.0001) highOrderVorticity= /* V.I High order vort. advect. flag */
(PID.TID 0000.0001)                   F
(PID.TID 0000.0001)     ;
(PID.TID 0000.0001) upwindShear= /* V.I Upwind vertical Shear advection flag */
(PID.TID 0000.0001)                   F
(PID.TID 0000.0001)     ;
(PID.TID 0000.0001) selectKEscheme= /* V.I Kinetic Energy scheme selector */
(PID.TID 0000.0001)                       0
(PID.TID 0000.0001)     ;
(PID.TID 0000.0001) momForcing =  /* Momentum forcing on/off flag */
(PID.TID 0000.0001)                   T
(PID.TID 0000.0001)     ;
(PID.TID 0000.0001) momPressureForcing =  /* Momentum pressure term on/off flag */
(PID.TID 0000.0001)                   T
(PID.TID 0000.0001)     ;
(PID.TID 0000.0001) implicitIntGravWave= /* Implicit Internal Gravity Wave flag */
(PID.TID 0000.0001)                   F
(PID.TID 0000.0001)     ;
(PID.TID 0000.0001) staggerTimeStep =   /* Stagger time stepping on/off flag */
(PID.TID 0000.0001)                   F
(PID.TID 0000.0001)     ;
(PID.TID 0000.0001) multiDimAdvection =   /* enable/disable Multi-Dim Advection */
(PID.TID 0000.0001)                   T
(PID.TID 0000.0001)     ;
(PID.TID 0000.0001) useMultiDimAdvec =   /* Multi-Dim Advection is/is-not used */
(PID.TID 0000.0001)                   F
(PID.TID 0000.0001)     ;
(PID.TID 0000.0001) implicitDiffusion = /* Implicit Diffusion on/off flag */
(PID.TID 0000.0001)                   T
(PID.TID 0000.0001)     ;
(PID.TID 0000.0001) tempStepping =  /* Temperature equation on/off flag */
(PID.TID 0000.0001)                   T
(PID.TID 0000.0001)     ;
(PID.TID 0000.0001) tempAdvection=  /* Temperature advection on/off flag */
(PID.TID 0000.0001)                   T
(PID.TID 0000.0001)     ;
(PID.TID 0000.0001) tempImplVertAdv = /* Temp. implicit vert. advection on/off */
(PID.TID 0000.0001)                   F
(PID.TID 0000.0001)     ;
(PID.TID 0000.0001) tempForcing  =  /* Temperature forcing on/off flag */
(PID.TID 0000.0001)                   T
(PID.TID 0000.0001)     ;
(PID.TID 0000.0001) tempIsActiveTr = /* Temp. is a dynamically Active Tracer */
(PID.TID 0000.0001)                   T
(PID.TID 0000.0001)     ;
(PID.TID 0000.0001) saltStepping =  /* Salinity equation on/off flag */
(PID.TID 0000.0001)                   T
(PID.TID 0000.0001)     ;
(PID.TID 0000.0001) saltAdvection=  /* Salinity advection on/off flag */
(PID.TID 0000.0001)                   T
(PID.TID 0000.0001)     ;
(PID.TID 0000.0001) saltImplVertAdv = /* Sali. implicit vert. advection on/off */
(PID.TID 0000.0001)                   F
(PID.TID 0000.0001)     ;
(PID.TID 0000.0001) saltForcing  =  /* Salinity forcing on/off flag */
(PID.TID 0000.0001)                   T
(PID.TID 0000.0001)     ;
(PID.TID 0000.0001) saltIsActiveTr = /* Salt  is a dynamically Active Tracer */
(PID.TID 0000.0001)                   F
(PID.TID 0000.0001)     ;
(PID.TID 0000.0001)  readBinaryPrec = /* Precision used for reading binary files */
(PID.TID 0000.0001)                      64
(PID.TID 0000.0001)     ;
(PID.TID 0000.0001) writeBinaryPrec = /* Precision used for writing binary files */
(PID.TID 0000.0001)                      64
(PID.TID 0000.0001)     ;
(PID.TID 0000.0001)  globalFiles = /* write "global" (=not per tile) files */
(PID.TID 0000.0001)                   F
(PID.TID 0000.0001)     ;
(PID.TID 0000.0001)  useSingleCpuIO = /* only master MPI process does I/O */
(PID.TID 0000.0001)                   F
(PID.TID 0000.0001)     ;
(PID.TID 0000.0001) /* debLev[*]  : level of debug & auxiliary message printing */
(PID.TID 0000.0001) debLevZero =  0 ; /* level of disabled aux. msg printing */
(PID.TID 0000.0001)    debLevA =  1 ; /* level of minimum  aux. msg printing */
(PID.TID 0000.0001)    debLevB =  2 ; /* level of low aux. print (report read-file opening)*/
(PID.TID 0000.0001)    debLevC =  3 ; /* level of moderate debug prt (most pkgs debug msg) */
(PID.TID 0000.0001)    debLevD =  4 ; /* level of enhanced debug prt (add DEBUG_STATS prt) */
(PID.TID 0000.0001)    debLevE =  5 ; /* level of extensive debug printing */
(PID.TID 0000.0001) debugLevel =  /* select debug printing level */
(PID.TID 0000.0001)                       2
(PID.TID 0000.0001)     ;
(PID.TID 0000.0001) //
(PID.TID 0000.0001) // Elliptic solver(s) paramters ( PARM02 in namelist )
(PID.TID 0000.0001) //
(PID.TID 0000.0001) cg2dMaxIters =   /* Upper limit on 2d con. grad iterations  */
(PID.TID 0000.0001)                    1000
(PID.TID 0000.0001)     ;
(PID.TID 0000.0001) cg2dChkResFreq =   /* 2d con. grad convergence test frequency */
(PID.TID 0000.0001)                       1
(PID.TID 0000.0001)     ;
(PID.TID 0000.0001) cg2dTargetResidual =   /* 2d con. grad target residual  */
(PID.TID 0000.0001)                 1.000000000000000E-13
(PID.TID 0000.0001)     ;
(PID.TID 0000.0001) cg2dTargetResWunit =   /* CG2d target residual [W units] */
(PID.TID 0000.0001)                -1.000000000000000E+00
(PID.TID 0000.0001)     ;
(PID.TID 0000.0001) cg2dPreCondFreq =   /* Freq. for updating cg2d preconditioner */
(PID.TID 0000.0001)                       1
(PID.TID 0000.0001)     ;
(PID.TID 0000.0001) useSRCGSolver =  /* use single reduction CG solver(s) */
(PID.TID 0000.0001)                   F
(PID.TID 0000.0001)     ;
(PID.TID 0000.0001) printResidualFreq = /* Freq. for printing CG residual */
(PID.TID 0000.0001)                       0
(PID.TID 0000.0001)     ;
(PID.TID 0000.0001) //
(PID.TID 0000.0001) // Time stepping paramters ( PARM03 in namelist )
(PID.TID 0000.0001) //
(PID.TID 0000.0001) deltaTmom =   /* Momentum equation timestep ( s ) */
(PID.TID 0000.0001)                 1.800000000000000E+03
(PID.TID 0000.0001)     ;
(PID.TID 0000.0001) deltaTfreesurf = /* FreeSurface equation timestep ( s ) */
(PID.TID 0000.0001)                 1.800000000000000E+03
(PID.TID 0000.0001)     ;
(PID.TID 0000.0001) dTtracerLev =  /* Tracer equation timestep ( s ) */
(PID.TID 0000.0001)    25 @  1.800000000000000E+03              /* K =  1: 25 */
(PID.TID 0000.0001)     ;
(PID.TID 0000.0001) deltaTClock  =   /* Model clock timestep ( s ) */
(PID.TID 0000.0001)                 1.800000000000000E+03
(PID.TID 0000.0001)     ;
(PID.TID 0000.0001) cAdjFreq =   /* Convective adjustment interval ( s ) */
(PID.TID 0000.0001)                 1.800000000000000E+03
(PID.TID 0000.0001)     ;
(PID.TID 0000.0001) momForcingOutAB = /* =1: take Momentum Forcing out of Adams-Bash. stepping */
(PID.TID 0000.0001)                       0
(PID.TID 0000.0001)     ;
(PID.TID 0000.0001) tracForcingOutAB = /* =1: take T,S,pTr Forcing out of Adams-Bash. stepping */
(PID.TID 0000.0001)                       0
(PID.TID 0000.0001)     ;
(PID.TID 0000.0001) momDissip_In_AB = /* put Dissipation Tendency in Adams-Bash. stepping */
(PID.TID 0000.0001)                   T
(PID.TID 0000.0001)     ;
(PID.TID 0000.0001) doAB_onGtGs = /* apply AB on Tendencies (rather than on T,S)*/
(PID.TID 0000.0001)                   T
(PID.TID 0000.0001)     ;
(PID.TID 0000.0001) abEps =   /* Adams-Bashforth-2 stabilizing weight */
(PID.TID 0000.0001)                 1.000000000000000E-01
(PID.TID 0000.0001)     ;
(PID.TID 0000.0001) pickupStrictlyMatch= /* stop if pickup do not strictly match */
(PID.TID 0000.0001)                   T
(PID.TID 0000.0001)     ;
(PID.TID 0000.0001) nIter0   =   /* Run starting timestep number */
(PID.TID 0000.0001)                       0
(PID.TID 0000.0001)     ;
(PID.TID 0000.0001) nTimeSteps = /* Number of timesteps */
(PID.TID 0000.0001)                      20
(PID.TID 0000.0001)     ;
(PID.TID 0000.0001) nEndIter =   /* Run ending timestep number */
(PID.TID 0000.0001)                      20
(PID.TID 0000.0001)     ;
(PID.TID 0000.0001) baseTime =   /* Model base time ( s ) */
(PID.TID 0000.0001)                 0.000000000000000E+00
(PID.TID 0000.0001)     ;
(PID.TID 0000.0001) startTime =  /* Run start time ( s ) */
(PID.TID 0000.0001)                 0.000000000000000E+00
(PID.TID 0000.0001)     ;
(PID.TID 0000.0001) endTime  =   /* Integration ending time ( s ) */
(PID.TID 0000.0001)                 3.600000000000000E+04
(PID.TID 0000.0001)     ;
(PID.TID 0000.0001) pChkPtFreq = /* Permanent restart/pickup file interval ( s ) */
(PID.TID 0000.0001)                 0.000000000000000E+00
(PID.TID 0000.0001)     ;
(PID.TID 0000.0001) chkPtFreq  = /* Rolling restart/pickup file interval ( s ) */
(PID.TID 0000.0001)                 0.000000000000000E+00
(PID.TID 0000.0001)     ;
(PID.TID 0000.0001) pickup_write_mdsio =   /* Model IO flag. */
(PID.TID 0000.0001)                   T
(PID.TID 0000.0001)     ;
(PID.TID 0000.0001) pickup_read_mdsio =   /* Model IO flag. */
(PID.TID 0000.0001)                   T
(PID.TID 0000.0001)     ;
(PID.TID 0000.0001) pickup_write_immed =   /* Model IO flag. */
(PID.TID 0000.0001)                   F
(PID.TID 0000.0001)     ;
(PID.TID 0000.0001) writePickupAtEnd =   /* Model IO flag. */
(PID.TID 0000.0001)                   T
(PID.TID 0000.0001)     ;
(PID.TID 0000.0001) dumpFreq =   /* Model state write out interval ( s ). */
(PID.TID 0000.0001)                 8.640000000000000E+06
(PID.TID 0000.0001)     ;
(PID.TID 0000.0001) dumpInitAndLast= /* write out Initial & Last iter. model state */
(PID.TID 0000.0001)                   T
(PID.TID 0000.0001)     ;
(PID.TID 0000.0001) snapshot_mdsio =   /* Model IO flag. */
(PID.TID 0000.0001)                   T
(PID.TID 0000.0001)     ;
(PID.TID 0000.0001) monitorFreq =   /* Monitor output interval ( s ). */
(PID.TID 0000.0001)                 1.000000000000000E+00
(PID.TID 0000.0001)     ;
(PID.TID 0000.0001) monitorSelect = /* select group of variables to monitor */
(PID.TID 0000.0001)                       1
(PID.TID 0000.0001)     ;
(PID.TID 0000.0001) monitor_stdio =   /* Model IO flag. */
(PID.TID 0000.0001)                   T
(PID.TID 0000.0001)     ;
(PID.TID 0000.0001) externForcingPeriod =   /* forcing period (s) */
(PID.TID 0000.0001)                 0.000000000000000E+00
(PID.TID 0000.0001)     ;
(PID.TID 0000.0001) externForcingCycle =   /* period of the cyle (s). */
(PID.TID 0000.0001)                 0.000000000000000E+00
(PID.TID 0000.0001)     ;
(PID.TID 0000.0001) tauThetaClimRelax =   /* relaxation time scale (s) */
(PID.TID 0000.0001)                 0.000000000000000E+00
(PID.TID 0000.0001)     ;
(PID.TID 0000.0001) tauSaltClimRelax =   /* relaxation time scale (s) */
(PID.TID 0000.0001)                 0.000000000000000E+00
(PID.TID 0000.0001)     ;
(PID.TID 0000.0001) latBandClimRelax =   /* max. Lat. where relaxation */
(PID.TID 0000.0001)                 9.636774464936643E+05
(PID.TID 0000.0001)     ;
(PID.TID 0000.0001) //
(PID.TID 0000.0001) // Gridding paramters ( PARM04 in namelist )
(PID.TID 0000.0001) //
(PID.TID 0000.0001) usingCartesianGrid = /* Cartesian coordinates flag ( True/False ) */
(PID.TID 0000.0001)                   T
(PID.TID 0000.0001)     ;
(PID.TID 0000.0001) usingCylindricalGrid = /* Cylindrical coordinates flag ( True/False ) */
(PID.TID 0000.0001)                   F
(PID.TID 0000.0001)     ;
(PID.TID 0000.0001) usingSphericalPolarGrid = /* Spherical coordinates flag ( True/False ) */
(PID.TID 0000.0001)                   F
(PID.TID 0000.0001)     ;
(PID.TID 0000.0001) usingCurvilinearGrid = /* Curvilinear coordinates flag ( True/False ) */
(PID.TID 0000.0001)                   F
(PID.TID 0000.0001)     ;
(PID.TID 0000.0001) selectSigmaCoord = /* Hybrid-Sigma Vert. Coordinate option */
(PID.TID 0000.0001)                       0
(PID.TID 0000.0001)     ;
(PID.TID 0000.0001) Ro_SeaLevel = /* r(1) ( units of r ==  m ) */
(PID.TID 0000.0001)                 0.000000000000000E+00
(PID.TID 0000.0001)     ;
(PID.TID 0000.0001) rSigmaBnd = /* r/sigma transition ( units of r ==  m ) */
(PID.TID 0000.0001)                 1.234567000000000E+05
(PID.TID 0000.0001)     ;
(PID.TID 0000.0001) rkSign =   /* index orientation relative to vertical coordinate */
(PID.TID 0000.0001)                -1.000000000000000E+00
(PID.TID 0000.0001)     ;
(PID.TID 0000.0001) gravitySign = /* gravity orientation relative to vertical coordinate */
(PID.TID 0000.0001)                -1.000000000000000E+00
(PID.TID 0000.0001)     ;
(PID.TID 0000.0001) mass2rUnit = /* convert mass per unit area [kg/m2] to r-units [m] */
(PID.TID 0000.0001)                 1.000000000000000E-03
(PID.TID 0000.0001)     ;
(PID.TID 0000.0001) rUnit2mass = /* convert r-units [m] to mass per unit area [kg/m2] */
(PID.TID 0000.0001)                 1.000000000000000E+03
(PID.TID 0000.0001)     ;
(PID.TID 0000.0001) drC =   /* C spacing ( units of r ) */
(PID.TID 0000.0001)                 2.500000000000000E+01,      /* K =  1 */
(PID.TID 0000.0001)                 5.000000000000000E+01,      /* K =  2 */
(PID.TID 0000.0001)                 5.250000000000000E+01,      /* K =  3 */
(PID.TID 0000.0001)                 5.750000000000000E+01,      /* K =  4 */
(PID.TID 0000.0001)                 6.250000000000000E+01,      /* K =  5 */
(PID.TID 0000.0001)                 6.750000000000000E+01,      /* K =  6 */
(PID.TID 0000.0001)                 7.500000000000000E+01,      /* K =  7 */
(PID.TID 0000.0001)                 8.750000000000000E+01,      /* K =  8 */
(PID.TID 0000.0001)                 1.075000000000000E+02,      /* K =  9 */
(PID.TID 0000.0001)                 1.375000000000000E+02,      /* K = 10 */
(PID.TID 0000.0001)                 1.775000000000000E+02,      /* K = 11 */
(PID.TID 0000.0001)                 2.300000000000000E+02,      /* K = 12 */
(PID.TID 0000.0001)                 2.900000000000000E+02,      /* K = 13 */
(PID.TID 0000.0001)                 3.600000000000000E+02,      /* K = 14 */
(PID.TID 0000.0001)                 4.400000000000000E+02,      /* K = 15 */
(PID.TID 0000.0001)                 2.405000000000000E+02,      /* K = 16 */
(PID.TID 0000.0001)     9 @  1.000000000000000E+00              /* K = 17: 25 */
(PID.TID 0000.0001)     ;
(PID.TID 0000.0001) drF =   /* W spacing ( units of r ) */
(PID.TID 0000.0001)     2 @  5.000000000000000E+01,             /* K =  1:  2 */
(PID.TID 0000.0001)                 5.500000000000000E+01,      /* K =  3 */
(PID.TID 0000.0001)                 6.000000000000000E+01,      /* K =  4 */
(PID.TID 0000.0001)                 6.500000000000000E+01,      /* K =  5 */
(PID.TID 0000.0001)                 7.000000000000000E+01,      /* K =  6 */
(PID.TID 0000.0001)                 8.000000000000000E+01,      /* K =  7 */
(PID.TID 0000.0001)                 9.500000000000000E+01,      /* K =  8 */
(PID.TID 0000.0001)                 1.200000000000000E+02,      /* K =  9 */
(PID.TID 0000.0001)                 1.550000000000000E+02,      /* K = 10 */
(PID.TID 0000.0001)                 2.000000000000000E+02,      /* K = 11 */
(PID.TID 0000.0001)                 2.600000000000000E+02,      /* K = 12 */
(PID.TID 0000.0001)                 3.200000000000000E+02,      /* K = 13 */
(PID.TID 0000.0001)                 4.000000000000000E+02,      /* K = 14 */
(PID.TID 0000.0001)                 4.800000000000000E+02,      /* K = 15 */
(PID.TID 0000.0001)    10 @  1.000000000000000E+00              /* K = 16: 25 */
(PID.TID 0000.0001)     ;
(PID.TID 0000.0001) delX = /* U spacing ( m - cartesian, degrees - spherical ) */
(PID.TID 0000.0001)                 1.000000000000000E+04       /* I =  1 */
(PID.TID 0000.0001)     ;
(PID.TID 0000.0001) delY = /* V spacing ( m - cartesian, degrees - spherical ) */
(PID.TID 0000.0001)                 1.121845490233872E+04,      /* J =  1 */
(PID.TID 0000.0001)                 1.120417408127598E+04,      /* J =  2 */
(PID.TID 0000.0001)                 1.117790763965009E+04,      /* J =  3 */
(PID.TID 0000.0001)                 1.113214211541110E+04,      /* J =  4 */
(PID.TID 0000.0001)                 1.105667354210767E+04,      /* J =  5 */
(PID.TID 0000.0001)                 1.093902768829823E+04,      /* J =  6 */
(PID.TID 0000.0001)                 1.076592279809904E+04,      /* J =  7 */
(PID.TID 0000.0001)                 1.052599385487605E+04,      /* J =  8 */
(PID.TID 0000.0001)                 1.021361421186628E+04,      /* J =  9 */
(PID.TID 0000.0001)                 9.833098593630379E+03,      /* J = 10 */
(PID.TID 0000.0001)                 9.402036775610259E+03,      /* J = 11 */
(PID.TID 0000.0001)                 8.952270066930356E+03,      /* J = 12 */
(PID.TID 0000.0001)                 8.527336484962450E+03,      /* J = 13 */
(PID.TID 0000.0001)                 8.176138828117387E+03,      /* J = 14 */
(PID.TID 0000.0001)                 7.943896227202051E+03,      /* J = 15 */
(PID.TID 0000.0001)                 7.862624379247893E+03,      /* J = 16 */
(PID.TID 0000.0001)                 7.943896227202051E+03,      /* J = 17 */
(PID.TID 0000.0001)                 8.176138828117387E+03,      /* J = 18 */
(PID.TID 0000.0001)                 8.527336484962450E+03,      /* J = 19 */
(PID.TID 0000.0001)                 8.952270066930356E+03,      /* J = 20 */
(PID.TID 0000.0001)                 9.402036775610259E+03,      /* J = 21 */
(PID.TID 0000.0001)                 9.833098593630379E+03,      /* J = 22 */
(PID.TID 0000.0001)                 1.021361421186628E+04,      /* J = 23 */
(PID.TID 0000.0001)                 1.052599385487605E+04,      /* J = 24 */
(PID.TID 0000.0001)                 1.076592279809904E+04,      /* J = 25 */
(PID.TID 0000.0001)                 1.093902768829823E+04,      /* J = 26 */
(PID.TID 0000.0001)                 1.105667354210767E+04,      /* J = 27 */
(PID.TID 0000.0001)                 1.113214211541110E+04,      /* J = 28 */
(PID.TID 0000.0001)                 1.117790763965009E+04,      /* J = 29 */
(PID.TID 0000.0001)                 1.120417408127598E+04,      /* J = 30 */
(PID.TID 0000.0001)                 1.121845490233872E+04,      /* J = 31 */
(PID.TID 0000.0001)                 1.122581549788791E+04       /* J = 32 */
(PID.TID 0000.0001)     ;
(PID.TID 0000.0001) xgOrigin = /* X-axis origin of West  edge (cartesian: m, lat-lon: deg.) */
(PID.TID 0000.0001)                 0.000000000000000E+00
(PID.TID 0000.0001)     ;
(PID.TID 0000.0001) ygOrigin = /* Y-axis origin of South edge (cartesian: m, lat-lon: deg.) */
(PID.TID 0000.0001)                 0.000000000000000E+00
(PID.TID 0000.0001)     ;
(PID.TID 0000.0001) rSphere =  /* Radius ( ignored - cartesian, m - spherical ) */
(PID.TID 0000.0001)                 6.370000000000000E+06
(PID.TID 0000.0001)     ;
(PID.TID 0000.0001) deepAtmosphere = /* Deep/Shallow Atmosphere flag (True/False) */
(PID.TID 0000.0001)                   F
(PID.TID 0000.0001)     ;
(PID.TID 0000.0001) xC =  /* xC(:,1,:,1) : P-point X coord ( deg. or m if cartesian) */
(PID.TID 0000.0001)                 5.000000000000000E+03       /* I =  1 */
(PID.TID 0000.0001)     ;
(PID.TID 0000.0001) yC =  /* yC(1,:,1,:) : P-point Y coord ( deg. or m if cartesian) */
(PID.TID 0000.0001)                 5.609227451169357E+03,      /* J =  1 */
(PID.TID 0000.0001)                 1.682054194297670E+04,      /* J =  2 */
(PID.TID 0000.0001)                 2.801158280343973E+04,      /* J =  3 */
(PID.TID 0000.0001)                 3.916660768097033E+04,      /* J =  4 */
(PID.TID 0000.0001)                 5.026101550972972E+04,      /* J =  5 */
(PID.TID 0000.0001)                 6.125886612493267E+04,      /* J =  6 */
(PID.TID 0000.0001)                 7.211134136813131E+04,      /* J =  7 */
(PID.TID 0000.0001)                 8.275729969461885E+04,      /* J =  8 */
(PID.TID 0000.0001)                 9.312710372799002E+04,      /* J =  9 */
(PID.TID 0000.0001)                 1.031504601307384E+05,      /* J = 10 */
(PID.TID 0000.0001)                 1.127680278153587E+05,      /* J = 11 */
(PID.TID 0000.0001)                 1.219451812366290E+05,      /* J = 12 */
(PID.TID 0000.0001)                 1.306849845125754E+05,      /* J = 13 */
(PID.TID 0000.0001)                 1.390367221691153E+05,      /* J = 14 */
(PID.TID 0000.0001)                 1.470967396967750E+05,      /* J = 15 */
(PID.TID 0000.0001)                 1.550000000000000E+05,      /* J = 16 */
(PID.TID 0000.0001)                 1.629032603032250E+05,      /* J = 17 */
(PID.TID 0000.0001)                 1.709632778308847E+05,      /* J = 18 */
(PID.TID 0000.0001)                 1.793150154874247E+05,      /* J = 19 */
(PID.TID 0000.0001)                 1.880548187633711E+05,      /* J = 20 */
(PID.TID 0000.0001)                 1.972319721846414E+05,      /* J = 21 */
(PID.TID 0000.0001)                 2.068495398692617E+05,      /* J = 22 */
(PID.TID 0000.0001)                 2.168728962720101E+05,      /* J = 23 */
(PID.TID 0000.0001)                 2.272427003053812E+05,      /* J = 24 */
(PID.TID 0000.0001)                 2.378886586318688E+05,      /* J = 25 */
(PID.TID 0000.0001)                 2.487411338750674E+05,      /* J = 26 */
(PID.TID 0000.0001)                 2.597389844902704E+05,      /* J = 27 */
(PID.TID 0000.0001)                 2.708333923190298E+05,      /* J = 28 */
(PID.TID 0000.0001)                 2.819884171965604E+05,      /* J = 29 */
(PID.TID 0000.0001)                 2.931794580570235E+05,      /* J = 30 */
(PID.TID 0000.0001)                 3.043907725488308E+05,      /* J = 31 */
(PID.TID 0000.0001)                 3.156129077489441E+05       /* J = 32 */
(PID.TID 0000.0001)     ;
(PID.TID 0000.0001) rcoord = /* P-point R coordinate (  units of r ) */
(PID.TID 0000.0001)                -2.500000000000000E+01,      /* K =  1 */
(PID.TID 0000.0001)                -7.500000000000000E+01,      /* K =  2 */
(PID.TID 0000.0001)                -1.275000000000000E+02,      /* K =  3 */
(PID.TID 0000.0001)                -1.850000000000000E+02,      /* K =  4 */
(PID.TID 0000.0001)                -2.475000000000000E+02,      /* K =  5 */
(PID.TID 0000.0001)                -3.150000000000000E+02,      /* K =  6 */
(PID.TID 0000.0001)                -3.900000000000000E+02,      /* K =  7 */
(PID.TID 0000.0001)                -4.775000000000000E+02,      /* K =  8 */
(PID.TID 0000.0001)                -5.850000000000000E+02,      /* K =  9 */
(PID.TID 0000.0001)                -7.225000000000000E+02,      /* K = 10 */
(PID.TID 0000.0001)                -9.000000000000000E+02,      /* K = 11 */
(PID.TID 0000.0001)                -1.130000000000000E+03,      /* K = 12 */
(PID.TID 0000.0001)                -1.420000000000000E+03,      /* K = 13 */
(PID.TID 0000.0001)                -1.780000000000000E+03,      /* K = 14 */
(PID.TID 0000.0001)                -2.220000000000000E+03,      /* K = 15 */
(PID.TID 0000.0001)                -2.460500000000000E+03,      /* K = 16 */
(PID.TID 0000.0001)                -2.461500000000000E+03,      /* K = 17 */
(PID.TID 0000.0001)                -2.462500000000000E+03,      /* K = 18 */
(PID.TID 0000.0001)                -2.463500000000000E+03,      /* K = 19 */
(PID.TID 0000.0001)                -2.464500000000000E+03,      /* K = 20 */
(PID.TID 0000.0001)                -2.465500000000000E+03,      /* K = 21 */
(PID.TID 0000.0001)                -2.466500000000000E+03,      /* K = 22 */
(PID.TID 0000.0001)                -2.467500000000000E+03,      /* K = 23 */
(PID.TID 0000.0001)                -2.468500000000000E+03,      /* K = 24 */
(PID.TID 0000.0001)                -2.469500000000000E+03       /* K = 25 */
(PID.TID 0000.0001)     ;
(PID.TID 0000.0001) rF =   /* W-Interf. R coordinate (  units of r ) */
(PID.TID 0000.0001)                 0.000000000000000E+00,      /* K =  1 */
(PID.TID 0000.0001)                -5.000000000000000E+01,      /* K =  2 */
(PID.TID 0000.0001)                -1.000000000000000E+02,      /* K =  3 */
(PID.TID 0000.0001)                -1.550000000000000E+02,      /* K =  4 */
(PID.TID 0000.0001)                -2.150000000000000E+02,      /* K =  5 */
(PID.TID 0000.0001)                -2.800000000000000E+02,      /* K =  6 */
(PID.TID 0000.0001)                -3.500000000000000E+02,      /* K =  7 */
(PID.TID 0000.0001)                -4.300000000000000E+02,      /* K =  8 */
(PID.TID 0000.0001)                -5.250000000000000E+02,      /* K =  9 */
(PID.TID 0000.0001)                -6.450000000000000E+02,      /* K = 10 */
(PID.TID 0000.0001)                -8.000000000000000E+02,      /* K = 11 */
(PID.TID 0000.0001)                -1.000000000000000E+03,      /* K = 12 */
(PID.TID 0000.0001)                -1.260000000000000E+03,      /* K = 13 */
(PID.TID 0000.0001)                -1.580000000000000E+03,      /* K = 14 */
(PID.TID 0000.0001)                -1.980000000000000E+03,      /* K = 15 */
(PID.TID 0000.0001)                -2.460000000000000E+03,      /* K = 16 */
(PID.TID 0000.0001)                -2.461000000000000E+03,      /* K = 17 */
(PID.TID 0000.0001)                -2.462000000000000E+03,      /* K = 18 */
(PID.TID 0000.0001)                -2.463000000000000E+03,      /* K = 19 */
(PID.TID 0000.0001)                -2.464000000000000E+03,      /* K = 20 */
(PID.TID 0000.0001)                -2.465000000000000E+03,      /* K = 21 */
(PID.TID 0000.0001)                -2.466000000000000E+03,      /* K = 22 */
(PID.TID 0000.0001)                -2.467000000000000E+03,      /* K = 23 */
(PID.TID 0000.0001)                -2.468000000000000E+03,      /* K = 24 */
(PID.TID 0000.0001)                -2.469000000000000E+03,      /* K = 25 */
(PID.TID 0000.0001)                -2.470000000000000E+03       /* K = 26 */
(PID.TID 0000.0001)     ;
(PID.TID 0000.0001) deepFacC = /* deep-model grid factor @ cell-Center (-) */
(PID.TID 0000.0001)    25 @  1.000000000000000E+00              /* K =  1: 25 */
(PID.TID 0000.0001)     ;
(PID.TID 0000.0001) deepFacF = /* deep-model grid factor @ W-Interface (-) */
(PID.TID 0000.0001)    26 @  1.000000000000000E+00              /* K =  1: 26 */
(PID.TID 0000.0001)     ;
(PID.TID 0000.0001) rVel2wUnit = /* convert units: rVel -> wSpeed (=1 if z-coord)*/
(PID.TID 0000.0001)    26 @  1.000000000000000E+00              /* K =  1: 26 */
(PID.TID 0000.0001)     ;
(PID.TID 0000.0001) wUnit2rVel = /* convert units: wSpeed -> rVel (=1 if z-coord)*/
(PID.TID 0000.0001)    26 @  1.000000000000000E+00              /* K =  1: 26 */
(PID.TID 0000.0001)     ;
(PID.TID 0000.0001) dBdrRef = /* Vertical grad. of reference buoyancy [(m/s/r)^2] */
(PID.TID 0000.0001)                 0.000000000000000E+00,      /* K =  1 */
(PID.TID 0000.0001)                 3.924000000000001E-05,      /* K =  2 */
(PID.TID 0000.0001)                 3.737142857142858E-05,      /* K =  3 */
(PID.TID 0000.0001)                 3.412173913043479E-05,      /* K =  4 */
(PID.TID 0000.0001)                 3.139200000000001E-05,      /* K =  5 */
(PID.TID 0000.0001)                 2.906666666666667E-05,      /* K =  6 */
(PID.TID 0000.0001)                 2.616000000000001E-05,      /* K =  7 */
(PID.TID 0000.0001)                 2.242285714285715E-05,      /* K =  8 */
(PID.TID 0000.0001)                 1.825116279069768E-05,      /* K =  9 */
(PID.TID 0000.0001)                 1.426909090909091E-05,      /* K = 10 */
(PID.TID 0000.0001)                 1.105352112676057E-05,      /* K = 11 */
(PID.TID 0000.0001)                 8.530434782608697E-06,      /* K = 12 */
(PID.TID 0000.0001)                 6.765517241379311E-06,      /* K = 13 */
(PID.TID 0000.0001)                 5.450000000000001E-06,      /* K = 14 */
(PID.TID 0000.0001)                 4.459090909090910E-06,      /* K = 15 */
(PID.TID 0000.0001)                 1.223700623700624E-04,      /* K = 16 */
(PID.TID 0000.0001)     9 @  0.000000000000000E+00              /* K = 17: 25 */
(PID.TID 0000.0001)     ;
(PID.TID 0000.0001) rotateGrid = /* use rotated grid ( True/False ) */
(PID.TID 0000.0001)                   F
(PID.TID 0000.0001)     ;
(PID.TID 0000.0001) phiEuler = /* Euler angle, rotation about original z-coordinate [rad] */
(PID.TID 0000.0001)                 0.000000000000000E+00
(PID.TID 0000.0001)     ;
(PID.TID 0000.0001) thetaEuler = /* Euler angle, rotation about new x-coordinate [rad] */
(PID.TID 0000.0001)                 0.000000000000000E+00
(PID.TID 0000.0001)     ;
(PID.TID 0000.0001) psiEuler = /* Euler angle, rotation about new z-coordinate [rad] */
(PID.TID 0000.0001)                 0.000000000000000E+00
(PID.TID 0000.0001)     ;
(PID.TID 0000.0001) dxF =  /* dxF(:,1,:,1) ( units: m ) */
(PID.TID 0000.0001)                 1.000000000000000E+04       /* I =  1 */
(PID.TID 0000.0001)     ;
(PID.TID 0000.0001) dxF =  /* dxF(1,:,1,:) ( units: m ) */
(PID.TID 0000.0001)    32 @  1.000000000000000E+04              /* J =  1: 32 */
(PID.TID 0000.0001)     ;
(PID.TID 0000.0001) dyF =  /* dyF(:,1,:,1) ( units: m ) */
(PID.TID 0000.0001)                 1.121845490233872E+04       /* I =  1 */
(PID.TID 0000.0001)     ;
(PID.TID 0000.0001) dyF =  /* dyF(1,:,1,:) ( units: m ) */
(PID.TID 0000.0001)                 1.121845490233872E+04,      /* J =  1 */
(PID.TID 0000.0001)                 1.120417408127598E+04,      /* J =  2 */
(PID.TID 0000.0001)                 1.117790763965009E+04,      /* J =  3 */
(PID.TID 0000.0001)                 1.113214211541110E+04,      /* J =  4 */
(PID.TID 0000.0001)                 1.105667354210767E+04,      /* J =  5 */
(PID.TID 0000.0001)                 1.093902768829823E+04,      /* J =  6 */
(PID.TID 0000.0001)                 1.076592279809904E+04,      /* J =  7 */
(PID.TID 0000.0001)                 1.052599385487605E+04,      /* J =  8 */
(PID.TID 0000.0001)                 1.021361421186628E+04,      /* J =  9 */
(PID.TID 0000.0001)                 9.833098593630379E+03,      /* J = 10 */
(PID.TID 0000.0001)                 9.402036775610259E+03,      /* J = 11 */
(PID.TID 0000.0001)                 8.952270066930356E+03,      /* J = 12 */
(PID.TID 0000.0001)                 8.527336484962450E+03,      /* J = 13 */
(PID.TID 0000.0001)                 8.176138828117387E+03,      /* J = 14 */
(PID.TID 0000.0001)                 7.943896227202051E+03,      /* J = 15 */
(PID.TID 0000.0001)                 7.862624379247893E+03,      /* J = 16 */
(PID.TID 0000.0001)                 7.943896227202051E+03,      /* J = 17 */
(PID.TID 0000.0001)                 8.176138828117387E+03,      /* J = 18 */
(PID.TID 0000.0001)                 8.527336484962450E+03,      /* J = 19 */
(PID.TID 0000.0001)                 8.952270066930356E+03,      /* J = 20 */
(PID.TID 0000.0001)                 9.402036775610259E+03,      /* J = 21 */
(PID.TID 0000.0001)                 9.833098593630379E+03,      /* J = 22 */
(PID.TID 0000.0001)                 1.021361421186628E+04,      /* J = 23 */
(PID.TID 0000.0001)                 1.052599385487605E+04,      /* J = 24 */
(PID.TID 0000.0001)                 1.076592279809904E+04,      /* J = 25 */
(PID.TID 0000.0001)                 1.093902768829823E+04,      /* J = 26 */
(PID.TID 0000.0001)                 1.105667354210767E+04,      /* J = 27 */
(PID.TID 0000.0001)                 1.113214211541110E+04,      /* J = 28 */
(PID.TID 0000.0001)                 1.117790763965009E+04,      /* J = 29 */
(PID.TID 0000.0001)                 1.120417408127598E+04,      /* J = 30 */
(PID.TID 0000.0001)                 1.121845490233872E+04,      /* J = 31 */
(PID.TID 0000.0001)                 1.122581549788791E+04       /* J = 32 */
(PID.TID 0000.0001)     ;
(PID.TID 0000.0001) dxG =  /* dxG(:,1,:,1) ( units: m ) */
(PID.TID 0000.0001)                 1.000000000000000E+04       /* I =  1 */
(PID.TID 0000.0001)     ;
(PID.TID 0000.0001) dxG =  /* dxG(1,:,1,:) ( units: m ) */
(PID.TID 0000.0001)    32 @  1.000000000000000E+04              /* J =  1: 32 */
(PID.TID 0000.0001)     ;
(PID.TID 0000.0001) dyG =  /* dyG(:,1,:,1) ( units: m ) */
(PID.TID 0000.0001)                 1.121845490233872E+04       /* I =  1 */
(PID.TID 0000.0001)     ;
(PID.TID 0000.0001) dyG =  /* dyG(1,:,1,:) ( units: m ) */
(PID.TID 0000.0001)                 1.121845490233872E+04,      /* J =  1 */
(PID.TID 0000.0001)                 1.120417408127598E+04,      /* J =  2 */
(PID.TID 0000.0001)                 1.117790763965009E+04,      /* J =  3 */
(PID.TID 0000.0001)                 1.113214211541110E+04,      /* J =  4 */
(PID.TID 0000.0001)                 1.105667354210767E+04,      /* J =  5 */
(PID.TID 0000.0001)                 1.093902768829823E+04,      /* J =  6 */
(PID.TID 0000.0001)                 1.076592279809904E+04,      /* J =  7 */
(PID.TID 0000.0001)                 1.052599385487605E+04,      /* J =  8 */
(PID.TID 0000.0001)                 1.021361421186628E+04,      /* J =  9 */
(PID.TID 0000.0001)                 9.833098593630379E+03,      /* J = 10 */
(PID.TID 0000.0001)                 9.402036775610259E+03,      /* J = 11 */
(PID.TID 0000.0001)                 8.952270066930356E+03,      /* J = 12 */
(PID.TID 0000.0001)                 8.527336484962450E+03,      /* J = 13 */
(PID.TID 0000.0001)                 8.176138828117387E+03,      /* J = 14 */
(PID.TID 0000.0001)                 7.943896227202051E+03,      /* J = 15 */
(PID.TID 0000.0001)                 7.862624379247893E+03,      /* J = 16 */
(PID.TID 0000.0001)                 7.943896227202051E+03,      /* J = 17 */
(PID.TID 0000.0001)                 8.176138828117387E+03,      /* J = 18 */
(PID.TID 0000.0001)                 8.527336484962450E+03,      /* J = 19 */
(PID.TID 0000.0001)                 8.952270066930356E+03,      /* J = 20 */
(PID.TID 0000.0001)                 9.402036775610259E+03,      /* J = 21 */
(PID.TID 0000.0001)                 9.833098593630379E+03,      /* J = 22 */
(PID.TID 0000.0001)                 1.021361421186628E+04,      /* J = 23 */
(PID.TID 0000.0001)                 1.052599385487605E+04,      /* J = 24 */
(PID.TID 0000.0001)                 1.076592279809904E+04,      /* J = 25 */
(PID.TID 0000.0001)                 1.093902768829823E+04,      /* J = 26 */
(PID.TID 0000.0001)                 1.105667354210767E+04,      /* J = 27 */
(PID.TID 0000.0001)                 1.113214211541110E+04,      /* J = 28 */
(PID.TID 0000.0001)                 1.117790763965009E+04,      /* J = 29 */
(PID.TID 0000.0001)                 1.120417408127598E+04,      /* J = 30 */
(PID.TID 0000.0001)                 1.121845490233872E+04,      /* J = 31 */
(PID.TID 0000.0001)                 1.122581549788791E+04       /* J = 32 */
(PID.TID 0000.0001)     ;
(PID.TID 0000.0001) dxC =  /* dxC(:,1,:,1) ( units: m ) */
(PID.TID 0000.0001)                 1.000000000000000E+04       /* I =  1 */
(PID.TID 0000.0001)     ;
(PID.TID 0000.0001) dxC =  /* dxC(1,:,1,:) ( units: m ) */
(PID.TID 0000.0001)    32 @  1.000000000000000E+04              /* J =  1: 32 */
(PID.TID 0000.0001)     ;
(PID.TID 0000.0001) dyC =  /* dyC(:,1,:,1) ( units: m ) */
(PID.TID 0000.0001)                 1.122213520011331E+04       /* I =  1 */
(PID.TID 0000.0001)     ;
(PID.TID 0000.0001) dyC =  /* dyC(1,:,1,:) ( units: m ) */
(PID.TID 0000.0001)                 1.122213520011331E+04,      /* J =  1 */
(PID.TID 0000.0001)                 1.121131449180735E+04,      /* J =  2 */
(PID.TID 0000.0001)                 1.119104086046303E+04,      /* J =  3 */
(PID.TID 0000.0001)                 1.115502487753059E+04,      /* J =  4 */
(PID.TID 0000.0001)                 1.109440782875938E+04,      /* J =  5 */
(PID.TID 0000.0001)                 1.099785061520295E+04,      /* J =  6 */
(PID.TID 0000.0001)                 1.085247524319864E+04,      /* J =  7 */
(PID.TID 0000.0001)                 1.064595832648755E+04,      /* J =  8 */
(PID.TID 0000.0001)                 1.036980403337117E+04,      /* J =  9 */
(PID.TID 0000.0001)                 1.002335640274833E+04,      /* J = 10 */
(PID.TID 0000.0001)                 9.617567684620319E+03,      /* J = 11 */
(PID.TID 0000.0001)                 9.177153421270308E+03,      /* J = 12 */
(PID.TID 0000.0001)                 8.739803275946404E+03,      /* J = 13 */
(PID.TID 0000.0001)                 8.351737656539919E+03,      /* J = 14 */
(PID.TID 0000.0001)                 8.060017527659718E+03,      /* J = 15 */
(PID.TID 0000.0001)     2 @  7.903260303224972E+03,             /* J = 16: 17 */
(PID.TID 0000.0001)                 8.060017527659718E+03,      /* J = 18 */
(PID.TID 0000.0001)                 8.351737656539919E+03,      /* J = 19 */
(PID.TID 0000.0001)                 8.739803275946404E+03,      /* J = 20 */
(PID.TID 0000.0001)                 9.177153421270308E+03,      /* J = 21 */
(PID.TID 0000.0001)                 9.617567684620319E+03,      /* J = 22 */
(PID.TID 0000.0001)                 1.002335640274833E+04,      /* J = 23 */
(PID.TID 0000.0001)                 1.036980403337117E+04,      /* J = 24 */
(PID.TID 0000.0001)                 1.064595832648755E+04,      /* J = 25 */
(PID.TID 0000.0001)                 1.085247524319864E+04,      /* J = 26 */
(PID.TID 0000.0001)                 1.099785061520295E+04,      /* J = 27 */
(PID.TID 0000.0001)                 1.109440782875938E+04,      /* J = 28 */
(PID.TID 0000.0001)                 1.115502487753059E+04,      /* J = 29 */
(PID.TID 0000.0001)                 1.119104086046303E+04,      /* J = 30 */
(PID.TID 0000.0001)                 1.121131449180735E+04,      /* J = 31 */
(PID.TID 0000.0001)                 1.122213520011331E+04       /* J = 32 */
(PID.TID 0000.0001)     ;
(PID.TID 0000.0001) dxV =  /* dxV(:,1,:,1) ( units: m ) */
(PID.TID 0000.0001)                 1.000000000000000E+04       /* I =  1 */
(PID.TID 0000.0001)     ;
(PID.TID 0000.0001) dxV =  /* dxV(1,:,1,:) ( units: m ) */
(PID.TID 0000.0001)    32 @  1.000000000000000E+04              /* J =  1: 32 */
(PID.TID 0000.0001)     ;
(PID.TID 0000.0001) dyU =  /* dyU(:,1,:,1) ( units: m ) */
(PID.TID 0000.0001)                 1.122213520011331E+04       /* I =  1 */
(PID.TID 0000.0001)     ;
(PID.TID 0000.0001) dyU =  /* dyU(1,:,1,:) ( units: m ) */
(PID.TID 0000.0001)                 1.122213520011331E+04,      /* J =  1 */
(PID.TID 0000.0001)                 1.121131449180735E+04,      /* J =  2 */
(PID.TID 0000.0001)                 1.119104086046303E+04,      /* J =  3 */
(PID.TID 0000.0001)                 1.115502487753059E+04,      /* J =  4 */
(PID.TID 0000.0001)                 1.109440782875938E+04,      /* J =  5 */
(PID.TID 0000.0001)                 1.099785061520295E+04,      /* J =  6 */
(PID.TID 0000.0001)                 1.085247524319864E+04,      /* J =  7 */
(PID.TID 0000.0001)                 1.064595832648755E+04,      /* J =  8 */
(PID.TID 0000.0001)                 1.036980403337117E+04,      /* J =  9 */
(PID.TID 0000.0001)                 1.002335640274833E+04,      /* J = 10 */
(PID.TID 0000.0001)                 9.617567684620319E+03,      /* J = 11 */
(PID.TID 0000.0001)                 9.177153421270308E+03,      /* J = 12 */
(PID.TID 0000.0001)                 8.739803275946404E+03,      /* J = 13 */
(PID.TID 0000.0001)                 8.351737656539919E+03,      /* J = 14 */
(PID.TID 0000.0001)                 8.060017527659718E+03,      /* J = 15 */
(PID.TID 0000.0001)     2 @  7.903260303224972E+03,             /* J = 16: 17 */
(PID.TID 0000.0001)                 8.060017527659718E+03,      /* J = 18 */
(PID.TID 0000.0001)                 8.351737656539919E+03,      /* J = 19 */
(PID.TID 0000.0001)                 8.739803275946404E+03,      /* J = 20 */
(PID.TID 0000.0001)                 9.177153421270308E+03,      /* J = 21 */
(PID.TID 0000.0001)                 9.617567684620319E+03,      /* J = 22 */
(PID.TID 0000.0001)                 1.002335640274833E+04,      /* J = 23 */
(PID.TID 0000.0001)                 1.036980403337117E+04,      /* J = 24 */
(PID.TID 0000.0001)                 1.064595832648755E+04,      /* J = 25 */
(PID.TID 0000.0001)                 1.085247524319864E+04,      /* J = 26 */
(PID.TID 0000.0001)                 1.099785061520295E+04,      /* J = 27 */
(PID.TID 0000.0001)                 1.109440782875938E+04,      /* J = 28 */
(PID.TID 0000.0001)                 1.115502487753059E+04,      /* J = 29 */
(PID.TID 0000.0001)                 1.119104086046303E+04,      /* J = 30 */
(PID.TID 0000.0001)                 1.121131449180735E+04,      /* J = 31 */
(PID.TID 0000.0001)                 1.122213520011331E+04       /* J = 32 */
(PID.TID 0000.0001)     ;
(PID.TID 0000.0001) rA  =  /* rA (:,1,:,1) ( units: m^2 ) */
(PID.TID 0000.0001)                 1.121845490233872E+08       /* I =  1 */
(PID.TID 0000.0001)     ;
(PID.TID 0000.0001) rA  =  /* rA (1,:,1,:) ( units: m^2 ) */
(PID.TID 0000.0001)                 1.121845490233872E+08,      /* J =  1 */
(PID.TID 0000.0001)                 1.120417408127598E+08,      /* J =  2 */
(PID.TID 0000.0001)                 1.117790763965009E+08,      /* J =  3 */
(PID.TID 0000.0001)                 1.113214211541110E+08,      /* J =  4 */
(PID.TID 0000.0001)                 1.105667354210767E+08,      /* J =  5 */
(PID.TID 0000.0001)                 1.093902768829823E+08,      /* J =  6 */
(PID.TID 0000.0001)                 1.076592279809904E+08,      /* J =  7 */
(PID.TID 0000.0001)                 1.052599385487605E+08,      /* J =  8 */
(PID.TID 0000.0001)                 1.021361421186628E+08,      /* J =  9 */
(PID.TID 0000.0001)                 9.833098593630378E+07,      /* J = 10 */
(PID.TID 0000.0001)                 9.402036775610259E+07,      /* J = 11 */
(PID.TID 0000.0001)                 8.952270066930355E+07,      /* J = 12 */
(PID.TID 0000.0001)                 8.527336484962450E+07,      /* J = 13 */
(PID.TID 0000.0001)                 8.176138828117387E+07,      /* J = 14 */
(PID.TID 0000.0001)                 7.943896227202050E+07,      /* J = 15 */
(PID.TID 0000.0001)                 7.862624379247892E+07,      /* J = 16 */
(PID.TID 0000.0001)                 7.943896227202050E+07,      /* J = 17 */
(PID.TID 0000.0001)                 8.176138828117387E+07,      /* J = 18 */
(PID.TID 0000.0001)                 8.527336484962450E+07,      /* J = 19 */
(PID.TID 0000.0001)                 8.952270066930355E+07,      /* J = 20 */
(PID.TID 0000.0001)                 9.402036775610259E+07,      /* J = 21 */
(PID.TID 0000.0001)                 9.833098593630378E+07,      /* J = 22 */
(PID.TID 0000.0001)                 1.021361421186628E+08,      /* J = 23 */
(PID.TID 0000.0001)                 1.052599385487605E+08,      /* J = 24 */
(PID.TID 0000.0001)                 1.076592279809904E+08,      /* J = 25 */
(PID.TID 0000.0001)                 1.093902768829823E+08,      /* J = 26 */
(PID.TID 0000.0001)                 1.105667354210767E+08,      /* J = 27 */
(PID.TID 0000.0001)                 1.113214211541110E+08,      /* J = 28 */
(PID.TID 0000.0001)                 1.117790763965009E+08,      /* J = 29 */
(PID.TID 0000.0001)                 1.120417408127598E+08,      /* J = 30 */
(PID.TID 0000.0001)                 1.121845490233872E+08,      /* J = 31 */
(PID.TID 0000.0001)                 1.122581549788791E+08       /* J = 32 */
(PID.TID 0000.0001)     ;
(PID.TID 0000.0001) rAw =  /* rAw(:,1,:,1) ( units: m^2 ) */
(PID.TID 0000.0001)                 1.121845490233872E+08       /* I =  1 */
(PID.TID 0000.0001)     ;
(PID.TID 0000.0001) rAw =  /* rAw(1,:,1,:) ( units: m^2 ) */
(PID.TID 0000.0001)                 1.121845490233872E+08,      /* J =  1 */
(PID.TID 0000.0001)                 1.120417408127598E+08,      /* J =  2 */
(PID.TID 0000.0001)                 1.117790763965009E+08,      /* J =  3 */
(PID.TID 0000.0001)                 1.113214211541110E+08,      /* J =  4 */
(PID.TID 0000.0001)                 1.105667354210767E+08,      /* J =  5 */
(PID.TID 0000.0001)                 1.093902768829823E+08,      /* J =  6 */
(PID.TID 0000.0001)                 1.076592279809904E+08,      /* J =  7 */
(PID.TID 0000.0001)                 1.052599385487605E+08,      /* J =  8 */
(PID.TID 0000.0001)                 1.021361421186628E+08,      /* J =  9 */
(PID.TID 0000.0001)                 9.833098593630378E+07,      /* J = 10 */
(PID.TID 0000.0001)                 9.402036775610259E+07,      /* J = 11 */
(PID.TID 0000.0001)                 8.952270066930355E+07,      /* J = 12 */
(PID.TID 0000.0001)                 8.527336484962450E+07,      /* J = 13 */
(PID.TID 0000.0001)                 8.176138828117387E+07,      /* J = 14 */
(PID.TID 0000.0001)                 7.943896227202050E+07,      /* J = 15 */
(PID.TID 0000.0001)                 7.862624379247892E+07,      /* J = 16 */
(PID.TID 0000.0001)                 7.943896227202050E+07,      /* J = 17 */
(PID.TID 0000.0001)                 8.176138828117387E+07,      /* J = 18 */
(PID.TID 0000.0001)                 8.527336484962450E+07,      /* J = 19 */
(PID.TID 0000.0001)                 8.952270066930355E+07,      /* J = 20 */
(PID.TID 0000.0001)                 9.402036775610259E+07,      /* J = 21 */
(PID.TID 0000.0001)                 9.833098593630378E+07,      /* J = 22 */
(PID.TID 0000.0001)                 1.021361421186628E+08,      /* J = 23 */
(PID.TID 0000.0001)                 1.052599385487605E+08,      /* J = 24 */
(PID.TID 0000.0001)                 1.076592279809904E+08,      /* J = 25 */
(PID.TID 0000.0001)                 1.093902768829823E+08,      /* J = 26 */
(PID.TID 0000.0001)                 1.105667354210767E+08,      /* J = 27 */
(PID.TID 0000.0001)                 1.113214211541110E+08,      /* J = 28 */
(PID.TID 0000.0001)                 1.117790763965009E+08,      /* J = 29 */
(PID.TID 0000.0001)                 1.120417408127598E+08,      /* J = 30 */
(PID.TID 0000.0001)                 1.121845490233872E+08,      /* J = 31 */
(PID.TID 0000.0001)                 1.122581549788791E+08       /* J = 32 */
(PID.TID 0000.0001)     ;
(PID.TID 0000.0001) rAs =  /* rAs(:,1,:,1) ( units: m^2 ) */
(PID.TID 0000.0001)                 1.122213520011331E+08       /* I =  1 */
(PID.TID 0000.0001)     ;
(PID.TID 0000.0001) rAs =  /* rAs(1,:,1,:) ( units: m^2 ) */
(PID.TID 0000.0001)                 1.122213520011331E+08,      /* J =  1 */
(PID.TID 0000.0001)                 1.121131449180735E+08,      /* J =  2 */
(PID.TID 0000.0001)                 1.119104086046303E+08,      /* J =  3 */
(PID.TID 0000.0001)                 1.115502487753059E+08,      /* J =  4 */
(PID.TID 0000.0001)                 1.109440782875938E+08,      /* J =  5 */
(PID.TID 0000.0001)                 1.099785061520295E+08,      /* J =  6 */
(PID.TID 0000.0001)                 1.085247524319864E+08,      /* J =  7 */
(PID.TID 0000.0001)                 1.064595832648755E+08,      /* J =  8 */
(PID.TID 0000.0001)                 1.036980403337117E+08,      /* J =  9 */
(PID.TID 0000.0001)                 1.002335640274833E+08,      /* J = 10 */
(PID.TID 0000.0001)                 9.617567684620319E+07,      /* J = 11 */
(PID.TID 0000.0001)                 9.177153421270308E+07,      /* J = 12 */
(PID.TID 0000.0001)                 8.739803275946404E+07,      /* J = 13 */
(PID.TID 0000.0001)                 8.351737656539918E+07,      /* J = 14 */
(PID.TID 0000.0001)                 8.060017527659719E+07,      /* J = 15 */
(PID.TID 0000.0001)     2 @  7.903260303224972E+07,             /* J = 16: 17 */
(PID.TID 0000.0001)                 8.060017527659719E+07,      /* J = 18 */
(PID.TID 0000.0001)                 8.351737656539918E+07,      /* J = 19 */
(PID.TID 0000.0001)                 8.739803275946404E+07,      /* J = 20 */
(PID.TID 0000.0001)                 9.177153421270308E+07,      /* J = 21 */
(PID.TID 0000.0001)                 9.617567684620319E+07,      /* J = 22 */
(PID.TID 0000.0001)                 1.002335640274833E+08,      /* J = 23 */
(PID.TID 0000.0001)                 1.036980403337117E+08,      /* J = 24 */
(PID.TID 0000.0001)                 1.064595832648755E+08,      /* J = 25 */
(PID.TID 0000.0001)                 1.085247524319864E+08,      /* J = 26 */
(PID.TID 0000.0001)                 1.099785061520295E+08,      /* J = 27 */
(PID.TID 0000.0001)                 1.109440782875938E+08,      /* J = 28 */
(PID.TID 0000.0001)                 1.115502487753059E+08,      /* J = 29 */
(PID.TID 0000.0001)                 1.119104086046303E+08,      /* J = 30 */
(PID.TID 0000.0001)                 1.121131449180735E+08,      /* J = 31 */
(PID.TID 0000.0001)                 1.122213520011331E+08       /* J = 32 */
(PID.TID 0000.0001)     ;
(PID.TID 0000.0001) globalArea = /* Integrated horizontal Area (m^2) */
(PID.TID 0000.0001)                 3.100000000000000E+09
(PID.TID 0000.0001)     ;
(PID.TID 0000.0001) // =======================================================
(PID.TID 0000.0001) // End of Model config. summary
(PID.TID 0000.0001) // =======================================================
(PID.TID 0000.0001) 
(PID.TID 0000.0001) == Packages configuration : Check & print summary ==
(PID.TID 0000.0001) 
(PID.TID 0000.0001) GMREDI_CHECK: #define GMREDI
(PID.TID 0000.0001) GM_AdvForm =     /* if FALSE => use SkewFlux Form */
(PID.TID 0000.0001)                   F
(PID.TID 0000.0001)     ;
(PID.TID 0000.0001) GM_InMomAsStress = /* if TRUE => apply as Eddy Stress */
(PID.TID 0000.0001)                   F
(PID.TID 0000.0001)     ;
(PID.TID 0000.0001) GM_AdvSeparate = /* Calc Bolus & Euler Adv. separately */
(PID.TID 0000.0001)                   F
(PID.TID 0000.0001)     ;
(PID.TID 0000.0001) GM_ExtraDiag =   /* Tensor Extra Diag (line 1&2) non 0 */
(PID.TID 0000.0001)                   F
(PID.TID 0000.0001)     ;
(PID.TID 0000.0001) GM_isopycK =    /* Background Isopyc. Diffusivity [m^2/s] */
(PID.TID 0000.0001)                 1.000000000000000E+03
(PID.TID 0000.0001)     ;
(PID.TID 0000.0001) GM_skewflx*K =  /* Background GM_SkewFlx Diffusivity [m^2/s] */
(PID.TID 0000.0001)                 1.000000000000000E+03
(PID.TID 0000.0001)     ;
(PID.TID 0000.0001) GM_advec*K =    /* Backg. GM-Advec(=Bolus) Diffusivity [m^2/s]*/
(PID.TID 0000.0001)                 0.000000000000000E+00
(PID.TID 0000.0001)     ;
(PID.TID 0000.0001) GM_Kmin_horiz = /* Minimum Horizontal Diffusivity [m^2/s] */
(PID.TID 0000.0001)                 0.000000000000000E+00
(PID.TID 0000.0001)     ;
(PID.TID 0000.0001) GM_Visbeck_alpha = /* Visbeck alpha coeff. [-] */
(PID.TID 0000.0001)                 0.000000000000000E+00
(PID.TID 0000.0001)     ;
(PID.TID 0000.0001) GM_Small_Number =  /* epsilon used in slope calc */
(PID.TID 0000.0001)                 9.999999999999999E-21
(PID.TID 0000.0001)     ;
(PID.TID 0000.0001) GM_slopeSqCutoff = /* Slope^2 cut-off value */
(PID.TID 0000.0001)                 1.000000000000000E+48
(PID.TID 0000.0001)     ;
(PID.TID 0000.0001) GM_taper_scheme =  /* Type of Tapering/Clipping scheme */
(PID.TID 0000.0001)               '                                        '
(PID.TID 0000.0001)     ;
(PID.TID 0000.0001) GM_maxSlope =  /* Maximum Slope (Tapering/Clipping) */
(PID.TID 0000.0001)                 1.000000000000000E-02
(PID.TID 0000.0001)     ;
(PID.TID 0000.0001) GM_facTrL2dz = /* Minimum Trans.Layer Thick. (factor of dz) */
(PID.TID 0000.0001)                 1.000000000000000E+00
(PID.TID 0000.0001)     ;
(PID.TID 0000.0001) GM_facTrL2ML = /* Max.Trans.Layer Thick. (factor of MxL Depth)*/
(PID.TID 0000.0001)                 5.000000000000000E+00
(PID.TID 0000.0001)     ;
(PID.TID 0000.0001) GM_maxTransLay = /* Maximum Transition Layer Thickness [m] */
(PID.TID 0000.0001)                 5.000000000000000E+02
(PID.TID 0000.0001)     ;
(PID.TID 0000.0001) GM_UseBVP = /* if TRUE => use bvp a la Ferrari et al. (2010) */
(PID.TID 0000.0001)                   F
(PID.TID 0000.0001)     ;
(PID.TID 0000.0001) GM_BVP_ModeNumber = /* Vertical mode number for BVP wave speed */
(PID.TID 0000.0001)                       1
(PID.TID 0000.0001)     ;
(PID.TID 0000.0001) GM_BVP_cMin = /* Minimum wave speed for BVP [m/s] */
(PID.TID 0000.0001)                 1.000000000000000E-01
(PID.TID 0000.0001)     ;
(PID.TID 0000.0001) GM_useSubMeso = /* if TRUE => use Sub-Meso param. (B.Fox-Kemper) */
(PID.TID 0000.0001)                   F
(PID.TID 0000.0001)     ;
(PID.TID 0000.0001) subMeso_Ceff = /* efficiency coeff. of Mixed-Layer Eddies [-] */
(PID.TID 0000.0001)                 7.000000000000001E-02
(PID.TID 0000.0001)     ;
(PID.TID 0000.0001) subMeso_invTau = /* inverse of Sub-Meso mixing time-scale [/s] */
(PID.TID 0000.0001)                 2.000000000000000E-06
(PID.TID 0000.0001)     ;
(PID.TID 0000.0001) subMeso_LfMin = /* minimum length-scale "Lf" [m] */
(PID.TID 0000.0001)                 1.000000000000000E+03
(PID.TID 0000.0001)     ;
(PID.TID 0000.0001) subMeso_Lmax = /* maximum grid-scale length [m] */
(PID.TID 0000.0001)                 1.100000000000000E+05
(PID.TID 0000.0001)     ;
(PID.TID 0000.0001) GAD_CHECK: #define ALLOW_GENERIC_ADVDIFF
(PID.TID 0000.0001) // =======================================================
(PID.TID 0000.0001) // CONFIG_CHECK : Normal End
(PID.TID 0000.0001) // =======================================================
(PID.TID 0000.0001) 
(PID.TID 0000.0001)  MDS_READ_FIELD: opening global file: theta.bin
(PID.TID 0000.0001)  MDS_READ_FIELD: opening global file: salt.bin
(PID.TID 0000.0001) Start initial hydrostatic pressure computation
(PID.TID 0000.0001) Pressure is predetermined for buoyancyRelation OCEANIC
(PID.TID 0000.0001) 
(PID.TID 0000.0001) // =======================================================
(PID.TID 0000.0001) // Model current state
(PID.TID 0000.0001) // =======================================================
(PID.TID 0000.0001) 
(PID.TID 0000.0001) // =======================================================
(PID.TID 0000.0001) // Begin MONITOR dynamic field statistics
(PID.TID 0000.0001) // =======================================================
(PID.TID 0000.0001) %MON time_tsnumber                =                     0
(PID.TID 0000.0001) %MON time_secondsf                =   0.0000000000000E+00
(PID.TID 0000.0001) %MON dynstat_eta_max              =   0.0000000000000E+00
(PID.TID 0000.0001) %MON dynstat_eta_min              =   0.0000000000000E+00
(PID.TID 0000.0001) %MON dynstat_eta_mean             =   0.0000000000000E+00
(PID.TID 0000.0001) %MON dynstat_eta_sd               =   0.0000000000000E+00
(PID.TID 0000.0001) %MON dynstat_eta_del2             =   0.0000000000000E+00
(PID.TID 0000.0001) %MON dynstat_uvel_max             =   0.0000000000000E+00
(PID.TID 0000.0001) %MON dynstat_uvel_min             =   0.0000000000000E+00
(PID.TID 0000.0001) %MON dynstat_uvel_mean            =   0.0000000000000E+00
(PID.TID 0000.0001) %MON dynstat_uvel_sd              =   0.0000000000000E+00
(PID.TID 0000.0001) %MON dynstat_uvel_del2            =   0.0000000000000E+00
(PID.TID 0000.0001) %MON dynstat_vvel_max             =   0.0000000000000E+00
(PID.TID 0000.0001) %MON dynstat_vvel_min             =   0.0000000000000E+00
(PID.TID 0000.0001) %MON dynstat_vvel_mean            =   0.0000000000000E+00
(PID.TID 0000.0001) %MON dynstat_vvel_sd              =   0.0000000000000E+00
(PID.TID 0000.0001) %MON dynstat_vvel_del2            =   0.0000000000000E+00
(PID.TID 0000.0001) %MON dynstat_wvel_max             =  -0.0000000000000E+00
(PID.TID 0000.0001) %MON dynstat_wvel_min             =  -0.0000000000000E+00
(PID.TID 0000.0001) %MON dynstat_wvel_mean            =   0.0000000000000E+00
(PID.TID 0000.0001) %MON dynstat_wvel_sd              =   0.0000000000000E+00
(PID.TID 0000.0001) %MON dynstat_wvel_del2            =   0.0000000000000E+00
(PID.TID 0000.0001) %MON dynstat_theta_max            =   2.0579432679982E+01
(PID.TID 0000.0001) %MON dynstat_theta_min            =   1.5473592277915E+01
(PID.TID 0000.0001) %MON dynstat_theta_mean           =   1.7492354740061E+01
(PID.TID 0000.0001) %MON dynstat_theta_sd             =   1.4504232377144E+00
(PID.TID 0000.0001) %MON dynstat_theta_del2           =   1.4100186622822E-04
(PID.TID 0000.0001) %MON dynstat_salt_max             =   1.0000000000000E+00
(PID.TID 0000.0001) %MON dynstat_salt_min             =   3.9497512775329E-01
(PID.TID 0000.0001) %MON dynstat_salt_mean            =   7.4692405417468E-01
(PID.TID 0000.0001) %MON dynstat_salt_sd              =   2.0066334606907E-01
(PID.TID 0000.0001) %MON dynstat_salt_del2            =   2.2833808829094E-04
(PID.TID 0000.0001) %MON advcfl_uvel_max              =   0.0000000000000E+00
(PID.TID 0000.0001) %MON advcfl_vvel_max              =   0.0000000000000E+00
(PID.TID 0000.0001) %MON advcfl_wvel_max              =   0.0000000000000E+00
(PID.TID 0000.0001) %MON advcfl_W_hf_max              =   0.0000000000000E+00
(PID.TID 0000.0001) %MON pe_b_mean                    =   0.0000000000000E+00
(PID.TID 0000.0001) %MON ke_max                       =   0.0000000000000E+00
(PID.TID 0000.0001) %MON ke_mean                      =   0.0000000000000E+00
(PID.TID 0000.0001) %MON ke_vol                       =   7.6260000000000E+12
(PID.TID 0000.0001) // =======================================================
(PID.TID 0000.0001) // End MONITOR dynamic field statistics
(PID.TID 0000.0001) // =======================================================
(PID.TID 0000.0001) SOLVE_FOR_PRESSURE: putPmEinXvector =    F
 cg2d: Sum(rhs),rhsMax =   1.77635683940025E-15  6.67801948723590E-03
(PID.TID 0000.0001)                    cg2d_init_res =    3.66988281473964E+00
(PID.TID 0000.0001)                       cg2d_iters =    15
(PID.TID 0000.0001)                         cg2d_res =    2.56600206633781E-14
(PID.TID 0000.0001) // =======================================================
(PID.TID 0000.0001) // Begin MONITOR dynamic field statistics
(PID.TID 0000.0001) // =======================================================
(PID.TID 0000.0001) %MON time_tsnumber                =                     1
(PID.TID 0000.0001) %MON time_secondsf                =   1.8000000000000E+03
(PID.TID 0000.0001) %MON dynstat_eta_max              =   6.6563083593882E-02
(PID.TID 0000.0001) %MON dynstat_eta_min              =  -6.6563083593882E-02
(PID.TID 0000.0001) %MON dynstat_eta_mean             =  -7.0756481539819E-17
(PID.TID 0000.0001) %MON dynstat_eta_sd               =   4.7149606513601E-02
(PID.TID 0000.0001) %MON dynstat_eta_del2             =   8.2876497274361E-05
(PID.TID 0000.0001) %MON dynstat_uvel_max             =   0.0000000000000E+00
(PID.TID 0000.0001) %MON dynstat_uvel_min             =   0.0000000000000E+00
(PID.TID 0000.0001) %MON dynstat_uvel_mean            =   0.0000000000000E+00
(PID.TID 0000.0001) %MON dynstat_uvel_sd              =   0.0000000000000E+00
(PID.TID 0000.0001) %MON dynstat_uvel_del2            =   0.0000000000000E+00
(PID.TID 0000.0001) %MON dynstat_vvel_max             =   1.1354380790879E-02
(PID.TID 0000.0001) %MON dynstat_vvel_min             =  -4.6348554740027E-03
(PID.TID 0000.0001) %MON dynstat_vvel_mean            =  -9.8106970589953E-04
(PID.TID 0000.0001) %MON dynstat_vvel_sd              =   3.2907867128048E-03
(PID.TID 0000.0001) %MON dynstat_vvel_del2            =   2.2795403693588E-06
(PID.TID 0000.0001) %MON dynstat_wvel_max             =   7.1542621214117E-05
(PID.TID 0000.0001) %MON dynstat_wvel_min             =  -7.1542621214112E-05
(PID.TID 0000.0001) %MON dynstat_wvel_mean            =   4.3304740464538E-21
(PID.TID 0000.0001) %MON dynstat_wvel_sd              =   3.8031779365730E-05
(PID.TID 0000.0001) %MON dynstat_wvel_del2            =   1.8304036799356E-08
(PID.TID 0000.0001) %MON dynstat_theta_max            =   2.0579316206217E+01
(PID.TID 0000.0001) %MON dynstat_theta_min            =   1.5473592582320E+01
(PID.TID 0000.0001) %MON dynstat_theta_mean           =   1.7492354740061E+01
(PID.TID 0000.0001) %MON dynstat_theta_sd             =   1.4504228370864E+00
(PID.TID 0000.0001) %MON dynstat_theta_del2           =   1.4097628132738E-04
(PID.TID 0000.0001) %MON dynstat_salt_max             =   9.9984957728160E-01
(PID.TID 0000.0001) %MON dynstat_salt_min             =   3.9575607541100E-01
(PID.TID 0000.0001) %MON dynstat_salt_mean            =   7.4692405417468E-01
(PID.TID 0000.0001) %MON dynstat_salt_sd              =   2.0049835230240E-01
(PID.TID 0000.0001) %MON dynstat_salt_del2            =   2.2965655589141E-04
(PID.TID 0000.0001) %MON advcfl_uvel_max              =   0.0000000000000E+00
(PID.TID 0000.0001) %MON advcfl_vvel_max              =   2.5860068679812E-03
(PID.TID 0000.0001) %MON advcfl_wvel_max              =   2.6625233437560E-03
(PID.TID 0000.0001) %MON advcfl_W_hf_max              =   1.7324290415119E-03
(PID.TID 0000.0001) %MON pe_b_mean                    =   4.4326153900286E-06
(PID.TID 0000.0001) %MON ke_max                       =   6.4794131347628E-05
(PID.TID 0000.0001) %MON ke_mean                      =   5.6825237759651E-06
(PID.TID 0000.0001) %MON ke_vol                       =   7.6260000000000E+12
(PID.TID 0000.0001) // =======================================================
(PID.TID 0000.0001) // End MONITOR dynamic field statistics
(PID.TID 0000.0001) // =======================================================
 cg2d: Sum(rhs),rhsMax =   3.55271367880050E-15  8.15751971931988E-03
(PID.TID 0000.0001)                    cg2d_init_res =    6.65282990845528E-01
(PID.TID 0000.0001)                       cg2d_iters =    29
(PID.TID 0000.0001)                         cg2d_res =    6.38829747591547E-15
(PID.TID 0000.0001) // =======================================================
(PID.TID 0000.0001) // Begin MONITOR dynamic field statistics
(PID.TID 0000.0001) // =======================================================
(PID.TID 0000.0001) %MON time_tsnumber                =                     2
(PID.TID 0000.0001) %MON time_secondsf                =   3.6000000000000E+03
(PID.TID 0000.0001) %MON dynstat_eta_max              =   8.1304547326167E-02
(PID.TID 0000.0001) %MON dynstat_eta_min              =  -8.1301793198654E-02
(PID.TID 0000.0001) %MON dynstat_eta_mean             =   8.0293224703881E-16
(PID.TID 0000.0001) %MON dynstat_eta_sd               =   5.7590068967055E-02
(PID.TID 0000.0001) %MON dynstat_eta_del2             =   1.0123698473793E-04
(PID.TID 0000.0001) %MON dynstat_uvel_max             =   3.2700616677733E-03
(PID.TID 0000.0001) %MON dynstat_uvel_min             =  -1.3348383765128E-03
(PID.TID 0000.0001) %MON dynstat_uvel_mean            =  -2.7232306613621E-04
(PID.TID 0000.0001) %MON dynstat_uvel_sd              =   9.3039067230915E-04
(PID.TID 0000.0001) %MON dynstat_uvel_del2            =   6.3447898046025E-07
(PID.TID 0000.0001) %MON dynstat_vvel_max             =   2.5345322879188E-02
(PID.TID 0000.0001) %MON dynstat_vvel_min             =  -6.6271476935035E-03
(PID.TID 0000.0001) %MON dynstat_vvel_mean            =  -2.1724275240117E-04
(PID.TID 0000.0001) %MON dynstat_vvel_sd              =   6.5249888213927E-03
(PID.TID 0000.0001) %MON dynstat_vvel_del2            =   5.0380398193842E-06
(PID.TID 0000.0001) %MON dynstat_wvel_max             =   9.5540627211734E-05
(PID.TID 0000.0001) %MON dynstat_wvel_min             =  -9.5545712310154E-05
(PID.TID 0000.0001) %MON dynstat_wvel_mean            =   4.3304740464538E-21
(PID.TID 0000.0001) %MON dynstat_wvel_sd              =   4.9334331584168E-05
(PID.TID 0000.0001) %MON dynstat_wvel_del2            =   2.1576356778954E-08
(PID.TID 0000.0001) %MON dynstat_theta_max            =   2.0579070324094E+01
(PID.TID 0000.0001) %MON dynstat_theta_min            =   1.5473653099569E+01
(PID.TID 0000.0001) %MON dynstat_theta_mean           =   1.7492341049027E+01
(PID.TID 0000.0001) %MON dynstat_theta_sd             =   1.4503992605820E+00
(PID.TID 0000.0001) %MON dynstat_theta_del2           =   1.4086161803921E-04
(PID.TID 0000.0001) %MON dynstat_salt_max             =   9.9970262315638E-01
(PID.TID 0000.0001) %MON dynstat_salt_min             =   3.9650733395711E-01
(PID.TID 0000.0001) %MON dynstat_salt_mean            =   7.4692406789201E-01
(PID.TID 0000.0001) %MON dynstat_salt_sd              =   2.0033396864395E-01
(PID.TID 0000.0001) %MON dynstat_salt_del2            =   2.3119941935355E-04
(PID.TID 0000.0001) %MON advcfl_uvel_max              =   5.8861110019919E-04
(PID.TID 0000.0001) %MON advcfl_vvel_max              =   5.7725014022279E-03
(PID.TID 0000.0001) %MON advcfl_wvel_max              =   1.7939213164044E-03
(PID.TID 0000.0001) %MON advcfl_W_hf_max              =   1.9220585532904E-03
(PID.TID 0000.0001) %MON pe_b_mean                    =   6.6130088187015E-06
(PID.TID 0000.0001) %MON ke_max                       =   3.2819719472977E-04
(PID.TID 0000.0001) %MON ke_mean                      =   2.1010003415338E-05
(PID.TID 0000.0001) %MON ke_vol                       =   7.6260000000000E+12
(PID.TID 0000.0001) // =======================================================
(PID.TID 0000.0001) // End MONITOR dynamic field statistics
(PID.TID 0000.0001) // =======================================================
 cg2d: Sum(rhs),rhsMax =  -3.37507799486048E-14  7.67663566162939E-03
(PID.TID 0000.0001)                    cg2d_init_res =    2.32598180658933E-01
(PID.TID 0000.0001)                       cg2d_iters =    29
(PID.TID 0000.0001)                         cg2d_res =    2.60371149304579E-14
(PID.TID 0000.0001) // =======================================================
(PID.TID 0000.0001) // Begin MONITOR dynamic field statistics
(PID.TID 0000.0001) // =======================================================
(PID.TID 0000.0001) %MON time_tsnumber                =                     3
(PID.TID 0000.0001) %MON time_secondsf                =   5.4000000000000E+03
(PID.TID 0000.0001) %MON dynstat_eta_max              =   7.6437695101060E-02
(PID.TID 0000.0001) %MON dynstat_eta_min              =  -7.6470224940480E-02
(PID.TID 0000.0001) %MON dynstat_eta_mean             =   1.7842938823085E-15
(PID.TID 0000.0001) %MON dynstat_eta_sd               =   5.4155159270862E-02
(PID.TID 0000.0001) %MON dynstat_eta_del2             =   9.5198286366740E-05
(PID.TID 0000.0001) %MON dynstat_uvel_max             =   9.3428247670906E-03
(PID.TID 0000.0001) %MON dynstat_uvel_min             =  -2.7428813392250E-03
(PID.TID 0000.0001) %MON dynstat_uvel_mean            =  -2.3050365784824E-04
(PID.TID 0000.0001) %MON dynstat_uvel_sd              =   2.4200477429631E-03
(PID.TID 0000.0001) %MON dynstat_uvel_del2            =   1.7942878703430E-06
(PID.TID 0000.0001) %MON dynstat_vvel_max             =   3.7528267193503E-02
(PID.TID 0000.0001) %MON dynstat_vvel_min             =  -9.0635633097110E-03
(PID.TID 0000.0001) %MON dynstat_vvel_mean            =   7.1472296894277E-05
(PID.TID 0000.0001) %MON dynstat_vvel_sd              =   9.5073484057533E-03
(PID.TID 0000.0001) %MON dynstat_vvel_del2            =   7.4685695349083E-06
(PID.TID 0000.0001) %MON dynstat_wvel_max             =   1.2925360684736E-04
(PID.TID 0000.0001) %MON dynstat_wvel_min             =  -1.2943248469183E-04
(PID.TID 0000.0001) %MON dynstat_wvel_mean            =  -1.7321896185815E-20
(PID.TID 0000.0001) %MON dynstat_wvel_sd              =   6.6201180463065E-05
(PID.TID 0000.0001) %MON dynstat_wvel_del2            =   2.8413014045905E-08
(PID.TID 0000.0001) %MON dynstat_theta_max            =   2.0578941750524E+01
(PID.TID 0000.0001) %MON dynstat_theta_min            =   1.5473716899449E+01
(PID.TID 0000.0001) %MON dynstat_theta_mean           =   1.7492343152732E+01
(PID.TID 0000.0001) %MON dynstat_theta_sd             =   1.4504024142755E+00
(PID.TID 0000.0001) %MON dynstat_theta_del2           =   1.4077757098491E-04
(PID.TID 0000.0001) %MON dynstat_salt_max             =   9.9955754561096E-01
(PID.TID 0000.0001) %MON dynstat_salt_min             =   3.9723879536118E-01
(PID.TID 0000.0001) %MON dynstat_salt_mean            =   7.4692406936568E-01
(PID.TID 0000.0001) %MON dynstat_salt_sd              =   2.0017001634032E-01
(PID.TID 0000.0001) %MON dynstat_salt_del2            =   2.3295472664860E-04
(PID.TID 0000.0001) %MON advcfl_uvel_max              =   1.6817084580763E-03
(PID.TID 0000.0001) %MON advcfl_vvel_max              =   8.5472170163420E-03
(PID.TID 0000.0001) %MON advcfl_wvel_max              =   2.3149493904773E-03
(PID.TID 0000.0001) %MON advcfl_W_hf_max              =   2.4803029183685E-03
(PID.TID 0000.0001) %MON pe_b_mean                    =   5.8476797386484E-06
(PID.TID 0000.0001) %MON ke_max                       =   7.5142551713295E-04
(PID.TID 0000.0001) %MON ke_mean                      =   4.6516643820170E-05
(PID.TID 0000.0001) %MON ke_vol                       =   7.6260000000000E+12
(PID.TID 0000.0001) // =======================================================
(PID.TID 0000.0001) // End MONITOR dynamic field statistics
(PID.TID 0000.0001) // =======================================================
 cg2d: Sum(rhs),rhsMax =  -7.46069872548105E-14  7.43672136131132E-03
(PID.TID 0000.0001)                    cg2d_init_res =    1.21564036063609E-01
(PID.TID 0000.0001)                       cg2d_iters =    29
(PID.TID 0000.0001)                         cg2d_res =    1.50206462697598E-14
(PID.TID 0000.0001) // =======================================================
(PID.TID 0000.0001) // Begin MONITOR dynamic field statistics
(PID.TID 0000.0001) // =======================================================
(PID.TID 0000.0001) %MON time_tsnumber                =                     4
(PID.TID 0000.0001) %MON time_secondsf                =   7.2000000000000E+03
(PID.TID 0000.0001) %MON dynstat_eta_max              =   7.3965843762496E-02
(PID.TID 0000.0001) %MON dynstat_eta_min              =  -7.4032816553112E-02
(PID.TID 0000.0001) %MON dynstat_eta_mean             =   5.8389479114163E-15
(PID.TID 0000.0001) %MON dynstat_eta_sd               =   5.2416467580646E-02
(PID.TID 0000.0001) %MON dynstat_eta_del2             =   9.2141424155897E-05
(PID.TID 0000.0001) %MON dynstat_uvel_max             =   1.7412459499568E-02
(PID.TID 0000.0001) %MON dynstat_uvel_min             =  -4.6373649872748E-03
(PID.TID 0000.0001) %MON dynstat_uvel_mean            =  -1.8805141446991E-04
(PID.TID 0000.0001) %MON dynstat_uvel_sd              =   4.4116197768384E-03
(PID.TID 0000.0001) %MON dynstat_uvel_del2            =   3.3583935865724E-06
(PID.TID 0000.0001) %MON dynstat_vvel_max             =   4.7878671039055E-02
(PID.TID 0000.0001) %MON dynstat_vvel_min             =  -1.1655312348496E-02
(PID.TID 0000.0001) %MON dynstat_vvel_mean            =   3.6178229969343E-05
(PID.TID 0000.0001) %MON dynstat_vvel_sd              =   1.2147801988016E-02
(PID.TID 0000.0001) %MON dynstat_vvel_del2            =   9.5270241714640E-06
(PID.TID 0000.0001) %MON dynstat_wvel_max             =   1.6640526652943E-04
(PID.TID 0000.0001) %MON dynstat_wvel_min             =  -1.6689517697078E-04
(PID.TID 0000.0001) %MON dynstat_wvel_mean            =   1.2991422139362E-20
(PID.TID 0000.0001) %MON dynstat_wvel_sd              =   8.5368461110541E-05
(PID.TID 0000.0001) %MON dynstat_wvel_del2            =   3.6890499995938E-08
(PID.TID 0000.0001) %MON dynstat_theta_max            =   2.0578803998517E+01
(PID.TID 0000.0001) %MON dynstat_theta_min            =   1.5473802726245E+01
(PID.TID 0000.0001) %MON dynstat_theta_mean           =   1.7492345285924E+01
(PID.TID 0000.0001) %MON dynstat_theta_sd             =   1.4504056302249E+00
(PID.TID 0000.0001) %MON dynstat_theta_del2           =   1.4067217504751E-04
(PID.TID 0000.0001) %MON dynstat_salt_max             =   9.9941389353718E-01
(PID.TID 0000.0001) %MON dynstat_salt_min             =   3.9795287008465E-01
(PID.TID 0000.0001) %MON dynstat_salt_mean            =   7.4692406187861E-01
(PID.TID 0000.0001) %MON dynstat_salt_sd              =   2.0000648764121E-01
(PID.TID 0000.0001) %MON dynstat_salt_del2            =   2.3488499971161E-04
(PID.TID 0000.0001) %MON advcfl_uvel_max              =   3.1342427099223E-03
(PID.TID 0000.0001) %MON advcfl_vvel_max              =   1.0904564010771E-02
(PID.TID 0000.0001) %MON advcfl_wvel_max              =   3.0035091591026E-03
(PID.TID 0000.0001) %MON advcfl_W_hf_max              =   3.2180455276099E-03
(PID.TID 0000.0001) %MON pe_b_mean                    =   5.4782191834022E-06
(PID.TID 0000.0001) %MON ke_max                       =   1.3035445895570E-03
(PID.TID 0000.0001) %MON ke_mean                      =   8.0863896713568E-05
(PID.TID 0000.0001) %MON ke_vol                       =   7.6260000000000E+12
(PID.TID 0000.0001) // =======================================================
(PID.TID 0000.0001) // End MONITOR dynamic field statistics
(PID.TID 0000.0001) // =======================================================
 cg2d: Sum(rhs),rhsMax =  -2.41584530158434E-13  7.43942781594512E-03
(PID.TID 0000.0001)                    cg2d_init_res =    4.77468875487645E-03
(PID.TID 0000.0001)                       cg2d_iters =    29
(PID.TID 0000.0001)                         cg2d_res =    5.09866463158320E-16
(PID.TID 0000.0001) // =======================================================
(PID.TID 0000.0001) // Begin MONITOR dynamic field statistics
(PID.TID 0000.0001) // =======================================================
(PID.TID 0000.0001) %MON time_tsnumber                =                     5
(PID.TID 0000.0001) %MON time_secondsf                =   9.0000000000000E+03
(PID.TID 0000.0001) %MON dynstat_eta_max              =   7.3887581417911E-02
(PID.TID 0000.0001) %MON dynstat_eta_min              =  -7.3999492954877E-02
(PID.TID 0000.0001) %MON dynstat_eta_mean             =   6.1435084189138E-15
(PID.TID 0000.0001) %MON dynstat_eta_sd               =   5.2376869019226E-02
(PID.TID 0000.0001) %MON dynstat_eta_del2             =   9.2073359313562E-05
(PID.TID 0000.0001) %MON dynstat_uvel_max             =   2.7146109001551E-02
(PID.TID 0000.0001) %MON dynstat_uvel_min             =  -7.0150258151613E-03
(PID.TID 0000.0001) %MON dynstat_uvel_mean            =  -1.8544885232186E-04
(PID.TID 0000.0001) %MON dynstat_uvel_sd              =   6.8340346336745E-03
(PID.TID 0000.0001) %MON dynstat_uvel_del2            =   5.2668010117777E-06
(PID.TID 0000.0001) %MON dynstat_vvel_max             =   5.6553922438312E-02
(PID.TID 0000.0001) %MON dynstat_vvel_min             =  -1.3828088126399E-02
(PID.TID 0000.0001) %MON dynstat_vvel_mean            =   8.2389158233774E-07
(PID.TID 0000.0001) %MON dynstat_vvel_sd              =   1.4360578854664E-02
(PID.TID 0000.0001) %MON dynstat_vvel_del2            =   1.1252858022587E-05
(PID.TID 0000.0001) %MON dynstat_wvel_max             =   1.9755324799268E-04
(PID.TID 0000.0001) %MON dynstat_wvel_min             =  -1.9853878657151E-04
(PID.TID 0000.0001) %MON dynstat_wvel_mean            =   2.5982844278723E-20
(PID.TID 0000.0001) %MON dynstat_wvel_sd              =   1.0149993917323E-04
(PID.TID 0000.0001) %MON dynstat_wvel_del2            =   4.4478197629166E-08
(PID.TID 0000.0001) %MON dynstat_theta_max            =   2.0578641734788E+01
(PID.TID 0000.0001) %MON dynstat_theta_min            =   1.5473910483302E+01
(PID.TID 0000.0001) %MON dynstat_theta_mean           =   1.7492345416555E+01
(PID.TID 0000.0001) %MON dynstat_theta_sd             =   1.4504054549767E+00
(PID.TID 0000.0001) %MON dynstat_theta_del2           =   1.4054089229384E-04
(PID.TID 0000.0001) %MON dynstat_salt_max             =   9.9927123294696E-01
(PID.TID 0000.0001) %MON dynstat_salt_min             =   3.9865090991366E-01
(PID.TID 0000.0001) %MON dynstat_salt_mean            =   7.4692405978624E-01
(PID.TID 0000.0001) %MON dynstat_salt_sd              =   1.9984337198410E-01
(PID.TID 0000.0001) %MON dynstat_salt_del2            =   2.3695775499299E-04
(PID.TID 0000.0001) %MON advcfl_uvel_max              =   4.8862996202792E-03
(PID.TID 0000.0001) %MON advcfl_vvel_max              =   1.2880388154167E-02
(PID.TID 0000.0001) %MON advcfl_wvel_max              =   3.5876031909935E-03
(PID.TID 0000.0001) %MON advcfl_W_hf_max              =   3.8438605617788E-03
(PID.TID 0000.0001) %MON pe_b_mean                    =   5.4699451554884E-06
(PID.TID 0000.0001) %MON ke_max                       =   1.9755165620766E-03
(PID.TID 0000.0001) %MON ke_mean                      =   1.2275080768075E-04
(PID.TID 0000.0001) %MON ke_vol                       =   7.6260000000000E+12
(PID.TID 0000.0001) // =======================================================
(PID.TID 0000.0001) // End MONITOR dynamic field statistics
(PID.TID 0000.0001) // =======================================================
 cg2d: Sum(rhs),rhsMax =  -2.57571741713036E-13  7.46015939018224E-03
(PID.TID 0000.0001)                    cg2d_init_res =    6.91594512600106E-03
(PID.TID 0000.0001)                       cg2d_iters =    29
(PID.TID 0000.0001)                         cg2d_res =    4.40036677031569E-15
(PID.TID 0000.0001) // =======================================================
(PID.TID 0000.0001) // Begin MONITOR dynamic field statistics
(PID.TID 0000.0001) // =======================================================
(PID.TID 0000.0001) %MON time_tsnumber                =                     6
(PID.TID 0000.0001) %MON time_secondsf                =   1.0800000000000E+04
(PID.TID 0000.0001) %MON dynstat_eta_max              =   7.3954795783653E-02
(PID.TID 0000.0001) %MON dynstat_eta_min              =  -7.4124781693250E-02
(PID.TID 0000.0001) %MON dynstat_eta_mean             =   8.5000068910660E-15
(PID.TID 0000.0001) %MON dynstat_eta_sd               =   5.2444918432160E-02
(PID.TID 0000.0001) %MON dynstat_eta_del2             =   9.2193866672236E-05
(PID.TID 0000.0001) %MON dynstat_uvel_max             =   3.8258885117756E-02
(PID.TID 0000.0001) %MON dynstat_uvel_min             =  -9.7383684678326E-03
(PID.TID 0000.0001) %MON dynstat_uvel_mean            =  -1.8898607640639E-04
(PID.TID 0000.0001) %MON dynstat_uvel_sd              =   9.6017143849921E-03
(PID.TID 0000.0001) %MON dynstat_uvel_del2            =   7.4748065800999E-06
(PID.TID 0000.0001) %MON dynstat_vvel_max             =   6.3318056349876E-02
(PID.TID 0000.0001) %MON dynstat_vvel_min             =  -1.5460162390270E-02
(PID.TID 0000.0001) %MON dynstat_vvel_mean            =  -1.4159359205931E-06
(PID.TID 0000.0001) %MON dynstat_vvel_sd              =   1.6072608541974E-02
(PID.TID 0000.0001) %MON dynstat_vvel_del2            =   1.2600386869252E-05
(PID.TID 0000.0001) %MON dynstat_wvel_max             =   2.2085574844907E-04
(PID.TID 0000.0001) %MON dynstat_wvel_min             =  -2.2250573415727E-04
(PID.TID 0000.0001) %MON dynstat_wvel_mean            =   8.6609480929077E-21
(PID.TID 0000.0001) %MON dynstat_wvel_sd              =   1.1359376025858E-04
(PID.TID 0000.0001) %MON dynstat_wvel_del2            =   5.1086310272541E-08
(PID.TID 0000.0001) %MON dynstat_theta_max            =   2.0578470487334E+01
(PID.TID 0000.0001) %MON dynstat_theta_min            =   1.5473977490318E+01
(PID.TID 0000.0001) %MON dynstat_theta_mean           =   1.7492345238865E+01
(PID.TID 0000.0001) %MON dynstat_theta_sd             =   1.4504047506177E+00
(PID.TID 0000.0001) %MON dynstat_theta_del2           =   1.4039297211329E-04
(PID.TID 0000.0001) %MON dynstat_salt_max             =   9.9912913992131E-01
(PID.TID 0000.0001) %MON dynstat_salt_min             =   3.9933403363178E-01
(PID.TID 0000.0001) %MON dynstat_salt_mean            =   7.4692405914724E-01
(PID.TID 0000.0001) %MON dynstat_salt_sd              =   1.9968066095052E-01
(PID.TID 0000.0001) %MON dynstat_salt_del2            =   2.3914424388421E-04
(PID.TID 0000.0001) %MON advcfl_uvel_max              =   6.8865993211960E-03
(PID.TID 0000.0001) %MON advcfl_vvel_max              =   1.4420947439030E-02
(PID.TID 0000.0001) %MON advcfl_wvel_max              =   4.0232234276025E-03
(PID.TID 0000.0001) %MON advcfl_W_hf_max              =   4.3105965295741E-03
(PID.TID 0000.0001) %MON pe_b_mean                    =   5.4841677834108E-06
(PID.TID 0000.0001) %MON ke_max                       =   2.7461177158466E-03
(PID.TID 0000.0001) %MON ke_mean                      =   1.7060441787902E-04
(PID.TID 0000.0001) %MON ke_vol                       =   7.6260000000000E+12
(PID.TID 0000.0001) // =======================================================
(PID.TID 0000.0001) // End MONITOR dynamic field statistics
(PID.TID 0000.0001) // =======================================================
 cg2d: Sum(rhs),rhsMax =  -3.49942297361849E-13  7.46108397901867E-03
(PID.TID 0000.0001)                    cg2d_init_res =    8.73665300347793E-03
(PID.TID 0000.0001)                       cg2d_iters =    29
(PID.TID 0000.0001)                         cg2d_res =    8.47709643773667E-15
(PID.TID 0000.0001) // =======================================================
(PID.TID 0000.0001) // Begin MONITOR dynamic field statistics
(PID.TID 0000.0001) // =======================================================
(PID.TID 0000.0001) %MON time_tsnumber                =                     7
(PID.TID 0000.0001) %MON time_secondsf                =   1.2600000000000E+04
(PID.TID 0000.0001) %MON dynstat_eta_max              =   7.3792531196849E-02
(PID.TID 0000.0001) %MON dynstat_eta_min              =  -7.4031776473055E-02
(PID.TID 0000.0001) %MON dynstat_eta_mean             =   7.2817648610761E-15
(PID.TID 0000.0001) %MON dynstat_eta_sd               =   5.2354353754330E-02
(PID.TID 0000.0001) %MON dynstat_eta_del2             =   9.2033625815749E-05
(PID.TID 0000.0001) %MON dynstat_uvel_max             =   5.0380977043997E-02
(PID.TID 0000.0001) %MON dynstat_uvel_min             =  -1.2696879742309E-02
(PID.TID 0000.0001) %MON dynstat_uvel_mean            =  -1.8946498929691E-04
(PID.TID 0000.0001) %MON dynstat_uvel_sd              =   1.2618417870803E-02
(PID.TID 0000.0001) %MON dynstat_uvel_del2            =   9.9218073286133E-06
(PID.TID 0000.0001) %MON dynstat_vvel_max             =   6.7913704143877E-02
(PID.TID 0000.0001) %MON dynstat_vvel_min             =  -1.6540313650003E-02
(PID.TID 0000.0001) %MON dynstat_vvel_mean            =   1.8846842266145E-06
(PID.TID 0000.0001) %MON dynstat_vvel_sd              =   1.7229093450834E-02
(PID.TID 0000.0001) %MON dynstat_vvel_del2            =   1.3518276205537E-05
(PID.TID 0000.0001) %MON dynstat_wvel_max             =   2.3628843070363E-04
(PID.TID 0000.0001) %MON dynstat_wvel_min             =  -2.3872314757857E-04
(PID.TID 0000.0001) %MON dynstat_wvel_mean            =   1.7321896185815E-20
(PID.TID 0000.0001) %MON dynstat_wvel_sd              =   1.2166284562134E-04
(PID.TID 0000.0001) %MON dynstat_wvel_del2            =   5.7268811716174E-08
(PID.TID 0000.0001) %MON dynstat_theta_max            =   2.0578295965885E+01
(PID.TID 0000.0001) %MON dynstat_theta_min            =   1.5473843431072E+01
(PID.TID 0000.0001) %MON dynstat_theta_mean           =   1.7492345214807E+01
(PID.TID 0000.0001) %MON dynstat_theta_sd             =   1.4504042983757E+00
(PID.TID 0000.0001) %MON dynstat_theta_del2           =   1.4023372026518E-04
(PID.TID 0000.0001) %MON dynstat_salt_max             =   9.9898726101015E-01
(PID.TID 0000.0001) %MON dynstat_salt_min             =   4.0000353238360E-01
(PID.TID 0000.0001) %MON dynstat_salt_mean            =   7.4692405743939E-01
(PID.TID 0000.0001) %MON dynstat_salt_sd              =   1.9951834622055E-01
(PID.TID 0000.0001) %MON dynstat_salt_del2            =   2.4141916533943E-04
(PID.TID 0000.0001) %MON advcfl_uvel_max              =   9.0685758679195E-03
(PID.TID 0000.0001) %MON advcfl_vvel_max              =   1.5467625102655E-02
(PID.TID 0000.0001) %MON advcfl_wvel_max              =   4.3177553247567E-03
(PID.TID 0000.0001) %MON advcfl_W_hf_max              =   4.6261664193821E-03
(PID.TID 0000.0001) %MON pe_b_mean                    =   5.4652434314023E-06
(PID.TID 0000.0001) %MON ke_max                       =   3.5860677958446E-03
(PID.TID 0000.0001) %MON ke_mean                      =   2.2267987879691E-04
(PID.TID 0000.0001) %MON ke_vol                       =   7.6260000000000E+12
(PID.TID 0000.0001) // =======================================================
(PID.TID 0000.0001) // End MONITOR dynamic field statistics
(PID.TID 0000.0001) // =======================================================
 cg2d: Sum(rhs),rhsMax =  -3.01980662698043E-13  7.45846904918361E-03
(PID.TID 0000.0001)                    cg2d_init_res =    1.17129301651926E-02
(PID.TID 0000.0001)                       cg2d_iters =    29
(PID.TID 0000.0001)                         cg2d_res =    1.45161456654093E-14
(PID.TID 0000.0001) // =======================================================
(PID.TID 0000.0001) // Begin MONITOR dynamic field statistics
(PID.TID 0000.0001) // =======================================================
(PID.TID 0000.0001) %MON time_tsnumber                =                     8
(PID.TID 0000.0001) %MON time_secondsf                =   1.4400000000000E+04
(PID.TID 0000.0001) %MON dynstat_eta_max              =   7.3563471851886E-02
(PID.TID 0000.0001) %MON dynstat_eta_min              =  -7.3881757250635E-02
(PID.TID 0000.0001) %MON dynstat_eta_mean             =   8.0877734768775E-15
(PID.TID 0000.0001) %MON dynstat_eta_sd               =   5.2219908288632E-02
(PID.TID 0000.0001) %MON dynstat_eta_del2             =   9.1793605856173E-05
(PID.TID 0000.0001) %MON dynstat_uvel_max             =   6.3094022131397E-02
(PID.TID 0000.0001) %MON dynstat_uvel_min             =  -1.5789979891356E-02
(PID.TID 0000.0001) %MON dynstat_uvel_mean            =  -1.8879464534511E-04
(PID.TID 0000.0001) %MON dynstat_uvel_sd              =   1.5780298994173E-02
(PID.TID 0000.0001) %MON dynstat_uvel_del2            =   1.2536776778543E-05
(PID.TID 0000.0001) %MON dynstat_vvel_max             =   7.0187995457516E-02
(PID.TID 0000.0001) %MON dynstat_vvel_min             =  -1.7046658153000E-02
(PID.TID 0000.0001) %MON dynstat_vvel_mean            =   2.7980492006353E-06
(PID.TID 0000.0001) %MON dynstat_vvel_sd              =   1.7794437548742E-02
(PID.TID 0000.0001) %MON dynstat_vvel_del2            =   1.3976746498722E-05
(PID.TID 0000.0001) %MON dynstat_wvel_max             =   2.4360298238585E-04
(PID.TID 0000.0001) %MON dynstat_wvel_min             =  -2.4687525002205E-04
(PID.TID 0000.0001) %MON dynstat_wvel_mean            =  -8.6609480929077E-21
(PID.TID 0000.0001) %MON dynstat_wvel_sd              =   1.2557177871832E-04
(PID.TID 0000.0001) %MON dynstat_wvel_del2            =   6.3516644342737E-08
(PID.TID 0000.0001) %MON dynstat_theta_max            =   2.0578119473264E+01
(PID.TID 0000.0001) %MON dynstat_theta_min            =   1.5473703504250E+01
(PID.TID 0000.0001) %MON dynstat_theta_mean           =   1.7492345248431E+01
(PID.TID 0000.0001) %MON dynstat_theta_sd             =   1.4504039354319E+00
(PID.TID 0000.0001) %MON dynstat_theta_del2           =   1.4006675627071E-04
(PID.TID 0000.0001) %MON dynstat_salt_max             =   9.9884537888596E-01
(PID.TID 0000.0001) %MON dynstat_salt_min             =   4.0066078955256E-01
(PID.TID 0000.0001) %MON dynstat_salt_mean            =   7.4692405497461E-01
(PID.TID 0000.0001) %MON dynstat_salt_sd              =   1.9935641947963E-01
(PID.TID 0000.0001) %MON dynstat_salt_del2            =   2.4376034807661E-04
(PID.TID 0000.0001) %MON advcfl_uvel_max              =   1.1356923983652E-02
(PID.TID 0000.0001) %MON advcfl_vvel_max              =   1.5985604291937E-02
(PID.TID 0000.0001) %MON advcfl_wvel_max              =   4.4679309319033E-03
(PID.TID 0000.0001) %MON advcfl_W_hf_max              =   4.7870688556106E-03
(PID.TID 0000.0001) %MON pe_b_mean                    =   5.4372100895556E-06
(PID.TID 0000.0001) %MON ke_max                       =   4.4647952555452E-03
(PID.TID 0000.0001) %MON ke_mean                      =   2.7711833768094E-04
(PID.TID 0000.0001) %MON ke_vol                       =   7.6260000000000E+12
(PID.TID 0000.0001) // =======================================================
(PID.TID 0000.0001) // End MONITOR dynamic field statistics
(PID.TID 0000.0001) // =======================================================
 cg2d: Sum(rhs),rhsMax =  -3.33955085807247E-13  7.45920720654576E-03
(PID.TID 0000.0001)                    cg2d_init_res =    1.20212744284597E-02
(PID.TID 0000.0001)                       cg2d_iters =    29
(PID.TID 0000.0001)                         cg2d_res =    2.05835204991580E-14
(PID.TID 0000.0001) // =======================================================
(PID.TID 0000.0001) // Begin MONITOR dynamic field statistics
(PID.TID 0000.0001) // =======================================================
(PID.TID 0000.0001) %MON time_tsnumber                =                     9
(PID.TID 0000.0001) %MON time_secondsf                =   1.6200000000000E+04
(PID.TID 0000.0001) %MON dynstat_eta_max              =   7.3337915815720E-02
(PID.TID 0000.0001) %MON dynstat_eta_min              =  -7.3743278888048E-02
(PID.TID 0000.0001) %MON dynstat_eta_mean             =   7.3771322927167E-15
(PID.TID 0000.0001) %MON dynstat_eta_sd               =   5.2090759957272E-02
(PID.TID 0000.0001) %MON dynstat_eta_del2             =   9.1559713539544E-05
(PID.TID 0000.0001) %MON dynstat_uvel_max             =   7.5963552470353E-02
(PID.TID 0000.0001) %MON dynstat_uvel_min             =  -1.8912019648175E-02
(PID.TID 0000.0001) %MON dynstat_uvel_mean            =  -1.8821441351894E-04
(PID.TID 0000.0001) %MON dynstat_uvel_sd              =   1.8979271169520E-02
(PID.TID 0000.0001) %MON dynstat_uvel_del2            =   1.5244046486776E-05
(PID.TID 0000.0001) %MON dynstat_vvel_max             =   7.0080864256101E-02
(PID.TID 0000.0001) %MON dynstat_vvel_min             =  -1.6963250521856E-02
(PID.TID 0000.0001) %MON dynstat_vvel_mean            =   2.6882097347213E-06
(PID.TID 0000.0001) %MON dynstat_vvel_sd              =   1.7753223481129E-02
(PID.TID 0000.0001) %MON dynstat_vvel_del2            =   1.3965054092709E-05
(PID.TID 0000.0001) %MON dynstat_wvel_max             =   2.4259968904734E-04
(PID.TID 0000.0001) %MON dynstat_wvel_min             =  -2.4668160593328E-04
(PID.TID 0000.0001) %MON dynstat_wvel_mean            =   2.5982844278723E-20
(PID.TID 0000.0001) %MON dynstat_wvel_sd              =   1.2519376697205E-04
(PID.TID 0000.0001) %MON dynstat_wvel_del2            =   7.0235409557432E-08
(PID.TID 0000.0001) %MON dynstat_theta_max            =   2.0577942664707E+01
(PID.TID 0000.0001) %MON dynstat_theta_min            =   1.5473562502685E+01
(PID.TID 0000.0001) %MON dynstat_theta_mean           =   1.7492345277512E+01
(PID.TID 0000.0001) %MON dynstat_theta_sd             =   1.4504035562882E+00
(PID.TID 0000.0001) %MON dynstat_theta_del2           =   1.3989599798072E-04
(PID.TID 0000.0001) %MON dynstat_salt_max             =   9.9870344844153E-01
(PID.TID 0000.0001) %MON dynstat_salt_min             =   4.0130718807912E-01
(PID.TID 0000.0001) %MON dynstat_salt_mean            =   7.4692405222775E-01
(PID.TID 0000.0001) %MON dynstat_salt_sd              =   1.9919487272012E-01
(PID.TID 0000.0001) %MON dynstat_salt_del2            =   2.4614844246277E-04
(PID.TID 0000.0001) %MON advcfl_uvel_max              =   1.3673439444664E-02
(PID.TID 0000.0001) %MON advcfl_vvel_max              =   1.5961204720729E-02
(PID.TID 0000.0001) %MON advcfl_wvel_max              =   4.4681268391135E-03
(PID.TID 0000.0001) %MON advcfl_W_hf_max              =   4.7872787561930E-03
(PID.TID 0000.0001) %MON pe_b_mean                    =   5.4103491356514E-06
(PID.TID 0000.0001) %MON ke_max                       =   5.3516604622273E-03
(PID.TID 0000.0001) %MON ke_mean                      =   3.3200965432796E-04
(PID.TID 0000.0001) %MON ke_vol                       =   7.6260000000000E+12
(PID.TID 0000.0001) // =======================================================
(PID.TID 0000.0001) // End MONITOR dynamic field statistics
(PID.TID 0000.0001) // =======================================================
 cg2d: Sum(rhs),rhsMax =  -3.03757019537443E-13  7.46309313954674E-03
(PID.TID 0000.0001)                    cg2d_init_res =    1.22789871463282E-02
(PID.TID 0000.0001)                       cg2d_iters =    29
(PID.TID 0000.0001)                         cg2d_res =    2.57668171131899E-14
(PID.TID 0000.0001) // =======================================================
(PID.TID 0000.0001) // Begin MONITOR dynamic field statistics
(PID.TID 0000.0001) // =======================================================
(PID.TID 0000.0001) %MON time_tsnumber                =                    10
(PID.TID 0000.0001) %MON time_secondsf                =   1.8000000000000E+04
(PID.TID 0000.0001) %MON dynstat_eta_max              =   7.3118288262387E-02
(PID.TID 0000.0001) %MON dynstat_eta_min              =  -7.3616059327837E-02
(PID.TID 0000.0001) %MON dynstat_eta_mean             =   6.6388037896925E-15
(PID.TID 0000.0001) %MON dynstat_eta_sd               =   5.1967679645272E-02
(PID.TID 0000.0001) %MON dynstat_eta_del2             =   9.1332974187071E-05
(PID.TID 0000.0001) %MON dynstat_uvel_max             =   8.8554467150740E-02
(PID.TID 0000.0001) %MON dynstat_uvel_min             =  -2.1955144156028E-02
(PID.TID 0000.0001) %MON dynstat_uvel_mean            =  -1.8775982058474E-04
(PID.TID 0000.0001) %MON dynstat_uvel_sd              =   2.2106668001808E-02
(PID.TID 0000.0001) %MON dynstat_uvel_del2            =   1.7965917372673E-05
(PID.TID 0000.0001) %MON dynstat_vvel_max             =   6.7612274576404E-02
(PID.TID 0000.0001) %MON dynstat_vvel_min             =  -1.6295145689441E-02
(PID.TID 0000.0001) %MON dynstat_vvel_mean            =   2.5623853966424E-06
(PID.TID 0000.0001) %MON dynstat_vvel_sd              =   1.7110671082979E-02
(PID.TID 0000.0001) %MON dynstat_vvel_del2            =   1.3488928307550E-05
(PID.TID 0000.0001) %MON dynstat_wvel_max             =   2.3337298158621E-04
(PID.TID 0000.0001) %MON dynstat_wvel_min             =  -2.3815225534116E-04
(PID.TID 0000.0001) %MON dynstat_wvel_mean            =   0.0000000000000E+00
(PID.TID 0000.0001) %MON dynstat_wvel_sd              =   1.2055418596545E-04
(PID.TID 0000.0001) %MON dynstat_wvel_del2            =   7.7737801715623E-08
(PID.TID 0000.0001) %MON dynstat_theta_max            =   2.0577767696839E+01
(PID.TID 0000.0001) %MON dynstat_theta_min            =   1.5473425283922E+01
(PID.TID 0000.0001) %MON dynstat_theta_mean           =   1.7492345300274E+01
(PID.TID 0000.0001) %MON dynstat_theta_sd             =   1.4504031588037E+00
(PID.TID 0000.0001) %MON dynstat_theta_del2           =   1.3972562686671E-04
(PID.TID 0000.0001) %MON dynstat_salt_max             =   9.9856161027840E-01
(PID.TID 0000.0001) %MON dynstat_salt_min             =   4.0194406869800E-01
(PID.TID 0000.0001) %MON dynstat_salt_mean            =   7.4692404930939E-01
(PID.TID 0000.0001) %MON dynstat_salt_sd              =   1.9903369830629E-01
(PID.TID 0000.0001) %MON dynstat_salt_del2            =   2.4856662531213E-04
(PID.TID 0000.0001) %MON advcfl_uvel_max              =   1.5939804087133E-02
(PID.TID 0000.0001) %MON advcfl_vvel_max              =   1.5398973280415E-02
(PID.TID 0000.0001) %MON advcfl_wvel_max              =   4.3180330986326E-03
(PID.TID 0000.0001) %MON advcfl_W_hf_max              =   4.6264640342492E-03
(PID.TID 0000.0001) %MON pe_b_mean                    =   5.3848121400143E-06
(PID.TID 0000.0001) %MON ke_max                       =   6.2162807424194E-03
(PID.TID 0000.0001) %MON ke_mean                      =   3.8545999294876E-04
(PID.TID 0000.0001) %MON ke_vol                       =   7.6260000000000E+12
(PID.TID 0000.0001) // =======================================================
(PID.TID 0000.0001) // End MONITOR dynamic field statistics
(PID.TID 0000.0001) // =======================================================
 cg2d: Sum(rhs),rhsMax =  -2.73558953267639E-13  7.46941853151003E-03
(PID.TID 0000.0001)                    cg2d_init_res =    1.25078853591211E-02
(PID.TID 0000.0001)                       cg2d_iters =    29
(PID.TID 0000.0001)                         cg2d_res =    3.05291554313184E-14
(PID.TID 0000.0001) // =======================================================
(PID.TID 0000.0001) // Begin MONITOR dynamic field statistics
(PID.TID 0000.0001) // =======================================================
(PID.TID 0000.0001) %MON time_tsnumber                =                    11
(PID.TID 0000.0001) %MON time_secondsf                =   1.9800000000000E+04
(PID.TID 0000.0001) %MON dynstat_eta_max              =   7.2904779812120E-02
(PID.TID 0000.0001) %MON dynstat_eta_min              =  -7.3496714830055E-02
(PID.TID 0000.0001) %MON dynstat_eta_mean             =   9.8074636151714E-15
(PID.TID 0000.0001) %MON dynstat_eta_sd               =   5.1849556889809E-02
(PID.TID 0000.0001) %MON dynstat_eta_del2             =   9.1111322097763E-05
(PID.TID 0000.0001) %MON dynstat_uvel_max             =   1.0044407458706E-01
(PID.TID 0000.0001) %MON dynstat_uvel_min             =  -2.4814698751317E-02
(PID.TID 0000.0001) %MON dynstat_uvel_mean            =  -1.8732878997959E-04
(PID.TID 0000.0001) %MON dynstat_uvel_sd              =   2.5056933097746E-02
(PID.TID 0000.0001) %MON dynstat_uvel_del2            =   2.0624880179223E-05
(PID.TID 0000.0001) %MON dynstat_vvel_max             =   6.2880244877998E-02
(PID.TID 0000.0001) %MON dynstat_vvel_min             =  -1.5068997027407E-02
(PID.TID 0000.0001) %MON dynstat_vvel_mean            =   2.4596741797452E-06
(PID.TID 0000.0001) %MON dynstat_vvel_sd              =   1.5892349229557E-02
(PID.TID 0000.0001) %MON dynstat_vvel_del2            =   1.2570640391250E-05
(PID.TID 0000.0001) %MON dynstat_wvel_max             =   2.1631654375605E-04
(PID.TID 0000.0001) %MON dynstat_wvel_min             =  -2.2160345406539E-04
(PID.TID 0000.0001) %MON dynstat_wvel_mean            =  -3.4643792371631E-20
(PID.TID 0000.0001) %MON dynstat_wvel_sd              =   1.1183733926097E-04
(PID.TID 0000.0001) %MON dynstat_wvel_del2            =   8.6204669373277E-08
(PID.TID 0000.0001) %MON dynstat_theta_max            =   2.0577596717219E+01
(PID.TID 0000.0001) %MON dynstat_theta_min            =   1.5473296529061E+01
(PID.TID 0000.0001) %MON dynstat_theta_mean           =   1.7492345321842E+01
(PID.TID 0000.0001) %MON dynstat_theta_sd             =   1.4504027535898E+00
(PID.TID 0000.0001) %MON dynstat_theta_del2           =   1.3955975574493E-04
(PID.TID 0000.0001) %MON dynstat_salt_max             =   9.9842018283699E-01
(PID.TID 0000.0001) %MON dynstat_salt_min             =   4.0257270138730E-01
(PID.TID 0000.0001) %MON dynstat_salt_mean            =   7.4692404627182E-01
(PID.TID 0000.0001) %MON dynstat_salt_sd              =   1.9887288890773E-01
(PID.TID 0000.0001) %MON dynstat_salt_del2            =   2.5100032617763E-04
(PID.TID 0000.0001) %MON advcfl_uvel_max              =   1.8079933425670E-02
(PID.TID 0000.0001) %MON advcfl_vvel_max              =   1.4321234077816E-02
(PID.TID 0000.0001) %MON advcfl_wvel_max              =   4.0231413976398E-03
(PID.TID 0000.0001) %MON advcfl_W_hf_max              =   4.3105086403283E-03
(PID.TID 0000.0001) %MON pe_b_mean                    =   5.3603605594020E-06
(PID.TID 0000.0001) %MON ke_max                       =   7.0294125417842E-03
(PID.TID 0000.0001) %MON ke_mean                      =   4.3565586482520E-04
(PID.TID 0000.0001) %MON ke_vol                       =   7.6260000000000E+12
(PID.TID 0000.0001) // =======================================================
(PID.TID 0000.0001) // End MONITOR dynamic field statistics
(PID.TID 0000.0001) // =======================================================
 cg2d: Sum(rhs),rhsMax =  -4.01456645704457E-13  7.47788739674695E-03
(PID.TID 0000.0001)                    cg2d_init_res =    1.24626610700330E-02
(PID.TID 0000.0001)                       cg2d_iters =    29
(PID.TID 0000.0001)                         cg2d_res =    3.50689172764491E-14
(PID.TID 0000.0001) // =======================================================
(PID.TID 0000.0001) // Begin MONITOR dynamic field statistics
(PID.TID 0000.0001) // =======================================================
(PID.TID 0000.0001) %MON time_tsnumber                =                    12
(PID.TID 0000.0001) %MON time_secondsf                =   2.1600000000000E+04
(PID.TID 0000.0001) %MON dynstat_eta_max              =   7.2703866651635E-02
(PID.TID 0000.0001) %MON dynstat_eta_min              =  -7.3387539837129E-02
(PID.TID 0000.0001) %MON dynstat_eta_mean             =   1.0453501055318E-14
(PID.TID 0000.0001) %MON dynstat_eta_sd               =   5.1739524555657E-02
(PID.TID 0000.0001) %MON dynstat_eta_del2             =   9.0900291537168E-05
(PID.TID 0000.0001) %MON dynstat_uvel_max             =   1.1123592565315E-01
(PID.TID 0000.0001) %MON dynstat_uvel_min             =  -2.7393177395515E-02
(PID.TID 0000.0001) %MON dynstat_uvel_mean            =  -1.8691322340540E-04
(PID.TID 0000.0001) %MON dynstat_uvel_sd              =   2.7731176605375E-02
(PID.TID 0000.0001) %MON dynstat_uvel_del2            =   2.3146114809099E-05
(PID.TID 0000.0001) %MON dynstat_vvel_max             =   5.6058325224634E-02
(PID.TID 0000.0001) %MON dynstat_vvel_min             =  -1.3330732400179E-02
(PID.TID 0000.0001) %MON dynstat_vvel_mean            =   2.2917146374643E-06
(PID.TID 0000.0001) %MON dynstat_vvel_sd              =   1.4143186999639E-02
(PID.TID 0000.0001) %MON dynstat_vvel_del2            =   1.1249542704961E-05
(PID.TID 0000.0001) %MON dynstat_wvel_max             =   1.9208300397144E-04
(PID.TID 0000.0001) %MON dynstat_wvel_min             =  -1.9771462010176E-04
(PID.TID 0000.0001) %MON dynstat_wvel_mean            =   8.6609480929077E-21
(PID.TID 0000.0001) %MON dynstat_wvel_sd              =   9.9367081228945E-05
(PID.TID 0000.0001) %MON dynstat_wvel_del2            =   9.5670821840160E-08
(PID.TID 0000.0001) %MON dynstat_theta_max            =   2.0577431698109E+01
(PID.TID 0000.0001) %MON dynstat_theta_min            =   1.5473180572694E+01
(PID.TID 0000.0001) %MON dynstat_theta_mean           =   1.7492345342625E+01
(PID.TID 0000.0001) %MON dynstat_theta_sd             =   1.4504023440460E+00
(PID.TID 0000.0001) %MON dynstat_theta_del2           =   1.3940224512244E-04
(PID.TID 0000.0001) %MON dynstat_salt_max             =   9.9827963241790E-01
(PID.TID 0000.0001) %MON dynstat_salt_min             =   4.0319425780441E-01
(PID.TID 0000.0001) %MON dynstat_salt_mean            =   7.4692404323069E-01
(PID.TID 0000.0001) %MON dynstat_salt_sd              =   1.9871243741277E-01
(PID.TID 0000.0001) %MON dynstat_salt_del2            =   2.5343697966947E-04
(PID.TID 0000.0001) %MON advcfl_uvel_max              =   2.0022466617567E-02
(PID.TID 0000.0001) %MON advcfl_vvel_max              =   1.2767513852880E-02
(PID.TID 0000.0001) %MON advcfl_wvel_max              =   3.6053088947709E-03
(PID.TID 0000.0001) %MON advcfl_W_hf_max              =   3.8628309586831E-03
(PID.TID 0000.0001) %MON pe_b_mean                    =   5.3376337634589E-06
(PID.TID 0000.0001) %MON ke_max                       =   7.7639506731517E-03
(PID.TID 0000.0001) %MON ke_mean                      =   4.8092202350309E-04
(PID.TID 0000.0001) %MON ke_vol                       =   7.6260000000000E+12
(PID.TID 0000.0001) // =======================================================
(PID.TID 0000.0001) // End MONITOR dynamic field statistics
(PID.TID 0000.0001) // =======================================================
 cg2d: Sum(rhs),rhsMax =  -4.29878355134861E-13  7.48816682042727E-03
(PID.TID 0000.0001)                    cg2d_init_res =    1.21244666592794E-02
(PID.TID 0000.0001)                       cg2d_iters =    29
(PID.TID 0000.0001)                         cg2d_res =    3.89789472612057E-14
(PID.TID 0000.0001) // =======================================================
(PID.TID 0000.0001) // Begin MONITOR dynamic field statistics
(PID.TID 0000.0001) // =======================================================
(PID.TID 0000.0001) %MON time_tsnumber                =                    13
(PID.TID 0000.0001) %MON time_secondsf                =   2.3400000000000E+04
(PID.TID 0000.0001) %MON dynstat_eta_max              =   7.2523055981866E-02
(PID.TID 0000.0001) %MON dynstat_eta_min              =  -7.3291546174911E-02
(PID.TID 0000.0001) %MON dynstat_eta_mean             =   8.1062316894531E-15
(PID.TID 0000.0001) %MON dynstat_eta_sd               =   5.1641338342198E-02
(PID.TID 0000.0001) %MON dynstat_eta_del2             =   9.0706563449004E-05
(PID.TID 0000.0001) %MON dynstat_uvel_max             =   1.2057311153158E-01
(PID.TID 0000.0001) %MON dynstat_uvel_min             =  -2.9603435114261E-02
(PID.TID 0000.0001) %MON dynstat_uvel_mean            =  -1.8653360789581E-04
(PID.TID 0000.0001) %MON dynstat_uvel_sd              =   3.0040481157397E-02
(PID.TID 0000.0001) %MON dynstat_uvel_del2            =   2.5460021747978E-05
(PID.TID 0000.0001) %MON dynstat_vvel_max             =   4.7389569887956E-02
(PID.TID 0000.0001) %MON dynstat_vvel_min             =  -1.1143543698105E-02
(PID.TID 0000.0001) %MON dynstat_vvel_mean            =   2.0454746477242E-06
(PID.TID 0000.0001) %MON dynstat_vvel_sd              =   1.1925850470665E-02
(PID.TID 0000.0001) %MON dynstat_vvel_del2            =   9.5832876870681E-06
(PID.TID 0000.0001) %MON dynstat_wvel_max             =   1.6188447660685E-04
(PID.TID 0000.0001) %MON dynstat_wvel_min             =  -1.6809534164733E-04
(PID.TID 0000.0001) %MON dynstat_wvel_mean            =  -2.5982844278723E-20
(PID.TID 0000.0001) %MON dynstat_wvel_sd              =   8.3592195682221E-05
(PID.TID 0000.0001) %MON dynstat_wvel_del2            =   1.0603540534661E-07
(PID.TID 0000.0001) %MON dynstat_theta_max            =   2.0577274397289E+01
(PID.TID 0000.0001) %MON dynstat_theta_min            =   1.5473081268991E+01
(PID.TID 0000.0001) %MON dynstat_theta_mean           =   1.7492345361598E+01
(PID.TID 0000.0001) %MON dynstat_theta_sd             =   1.4504019315676E+00
(PID.TID 0000.0001) %MON dynstat_theta_del2           =   1.3925658560963E-04
(PID.TID 0000.0001) %MON dynstat_salt_max             =   9.9814052440598E-01
(PID.TID 0000.0001) %MON dynstat_salt_min             =   4.0380978692692E-01
(PID.TID 0000.0001) %MON dynstat_salt_mean            =   7.4692404033599E-01
(PID.TID 0000.0001) %MON dynstat_salt_sd              =   1.9855233683100E-01
(PID.TID 0000.0001) %MON dynstat_salt_del2            =   2.5586580441078E-04
(PID.TID 0000.0001) %MON advcfl_uvel_max              =   2.1703160075684E-02
(PID.TID 0000.0001) %MON advcfl_vvel_max              =   1.0793169214421E-02
(PID.TID 0000.0001) %MON advcfl_wvel_max              =   3.0783447710851E-03
(PID.TID 0000.0001) %MON advcfl_W_hf_max              =   3.2982265404484E-03
(PID.TID 0000.0001) %MON pe_b_mean                    =   5.3173945062676E-06
(PID.TID 0000.0001) %MON ke_max                       =   8.3957836516420E-03
(PID.TID 0000.0001) %MON ke_mean                      =   5.1977213249044E-04
(PID.TID 0000.0001) %MON ke_vol                       =   7.6260000000000E+12
(PID.TID 0000.0001) // =======================================================
(PID.TID 0000.0001) // End MONITOR dynamic field statistics
(PID.TID 0000.0001) // =======================================================
 cg2d: Sum(rhs),rhsMax =  -3.32178728967847E-13  7.49977941230920E-03
(PID.TID 0000.0001)                    cg2d_init_res =    1.15769518117670E-02
(PID.TID 0000.0001)                       cg2d_iters =    29
(PID.TID 0000.0001)                         cg2d_res =    4.19594583424957E-14
(PID.TID 0000.0001) // =======================================================
(PID.TID 0000.0001) // Begin MONITOR dynamic field statistics
(PID.TID 0000.0001) // =======================================================
(PID.TID 0000.0001) %MON time_tsnumber                =                    14
(PID.TID 0000.0001) %MON time_secondsf                =   2.5200000000000E+04
(PID.TID 0000.0001) %MON dynstat_eta_max              =   7.2368855149766E-02
(PID.TID 0000.0001) %MON dynstat_eta_min              =  -7.3210775691813E-02
(PID.TID 0000.0001) %MON dynstat_eta_mean             =   8.3954103531376E-15
(PID.TID 0000.0001) %MON dynstat_eta_sd               =   5.1558056599687E-02
(PID.TID 0000.0001) %MON dynstat_eta_del2             =   9.0535586767950E-05
(PID.TID 0000.0001) %MON dynstat_uvel_max             =   1.2815007809849E-01
(PID.TID 0000.0001) %MON dynstat_uvel_min             =  -3.1371571165942E-02
(PID.TID 0000.0001) %MON dynstat_uvel_mean            =  -1.8620484219951E-04
(PID.TID 0000.0001) %MON dynstat_uvel_sd              =   3.1908849521296E-02
(PID.TID 0000.0001) %MON dynstat_uvel_del2            =   2.7504593258423E-05
(PID.TID 0000.0001) %MON dynstat_vvel_max             =   3.7177823629594E-02
(PID.TID 0000.0001) %MON dynstat_vvel_min             =  -8.6296484132991E-03
(PID.TID 0000.0001) %MON dynstat_vvel_mean            =   1.7354038128825E-06
(PID.TID 0000.0001) %MON dynstat_vvel_sd              =   9.3185749473875E-03
(PID.TID 0000.0001) %MON dynstat_vvel_del2            =   7.6527503759625E-06
(PID.TID 0000.0001) %MON dynstat_wvel_max             =   1.2687920169448E-04
(PID.TID 0000.0001) %MON dynstat_wvel_min             =  -1.3303877330331E-04
(PID.TID 0000.0001) %MON dynstat_wvel_mean            =   8.6609480929077E-21
(PID.TID 0000.0001) %MON dynstat_wvel_sd              =   6.5071557597831E-05
(PID.TID 0000.0001) %MON dynstat_wvel_del2            =   1.1708084584258E-07
(PID.TID 0000.0001) %MON dynstat_theta_max            =   2.0577126313120E+01
(PID.TID 0000.0001) %MON dynstat_theta_min            =   1.5473001873573E+01
(PID.TID 0000.0001) %MON dynstat_theta_mean           =   1.7492345378019E+01
(PID.TID 0000.0001) %MON dynstat_theta_sd             =   1.4504015180715E+00
(PID.TID 0000.0001) %MON dynstat_theta_del2           =   1.3912579644450E-04
(PID.TID 0000.0001) %MON dynstat_salt_max             =   9.9800346206851E-01
(PID.TID 0000.0001) %MON dynstat_salt_min             =   4.0442019578156E-01
(PID.TID 0000.0001) %MON dynstat_salt_mean            =   7.4692403774097E-01
(PID.TID 0000.0001) %MON dynstat_salt_sd              =   1.9839258018374E-01
(PID.TID 0000.0001) %MON dynstat_salt_del2            =   2.5827760722946E-04
(PID.TID 0000.0001) %MON advcfl_uvel_max              =   2.3067014057728E-02
(PID.TID 0000.0001) %MON advcfl_vvel_max              =   8.4674020550685E-03
(PID.TID 0000.0001) %MON advcfl_wvel_max              =   2.4535530650586E-03
(PID.TID 0000.0001) %MON advcfl_W_hf_max              =   2.6288068554199E-03
(PID.TID 0000.0001) %MON pe_b_mean                    =   5.3002576616466E-06
(PID.TID 0000.0001) %MON ke_max                       =   8.9044948722003E-03
(PID.TID 0000.0001) %MON ke_mean                      =   5.5095136381612E-04
(PID.TID 0000.0001) %MON ke_vol                       =   7.6260000000000E+12
(PID.TID 0000.0001) // =======================================================
(PID.TID 0000.0001) // End MONITOR dynamic field statistics
(PID.TID 0000.0001) // =======================================================
 cg2d: Sum(rhs),rhsMax =  -3.46389583683049E-13  7.51219697779194E-03
(PID.TID 0000.0001)                    cg2d_init_res =    1.09489542855347E-02
(PID.TID 0000.0001)                       cg2d_iters =    29
(PID.TID 0000.0001)                         cg2d_res =    4.40244913598360E-14
(PID.TID 0000.0001) // =======================================================
(PID.TID 0000.0001) // Begin MONITOR dynamic field statistics
(PID.TID 0000.0001) // =======================================================
(PID.TID 0000.0001) %MON time_tsnumber                =                    15
(PID.TID 0000.0001) %MON time_secondsf                =   2.7000000000000E+04
(PID.TID 0000.0001) %MON dynstat_eta_max              =   7.2246643537568E-02
(PID.TID 0000.0001) %MON dynstat_eta_min              =  -7.3146547085733E-02
(PID.TID 0000.0001) %MON dynstat_eta_mean             =   9.7274780273438E-15
(PID.TID 0000.0001) %MON dynstat_eta_sd               =   5.1492078648563E-02
(PID.TID 0000.0001) %MON dynstat_eta_del2             =   9.0391633461732E-05
(PID.TID 0000.0001) %MON dynstat_uvel_max             =   1.3372256761305E-01
(PID.TID 0000.0001) %MON dynstat_uvel_min             =  -3.2639389898822E-02
(PID.TID 0000.0001) %MON dynstat_uvel_mean            =  -1.8593645463502E-04
(PID.TID 0000.0001) %MON dynstat_uvel_sd              =   3.3275696462655E-02
(PID.TID 0000.0001) %MON dynstat_uvel_del2            =   2.9227533420858E-05
(PID.TID 0000.0001) %MON dynstat_vvel_max             =   2.5777034916748E-02
(PID.TID 0000.0001) %MON dynstat_vvel_min             =  -5.8477870600913E-03
(PID.TID 0000.0001) %MON dynstat_vvel_mean            =   1.3751830255448E-06
(PID.TID 0000.0001) %MON dynstat_vvel_sd              =   6.4126762793004E-03
(PID.TID 0000.0001) %MON dynstat_vvel_del2            =   5.5825215155197E-06
(PID.TID 0000.0001) %MON dynstat_wvel_max             =   8.7925423346051E-05
(PID.TID 0000.0001) %MON dynstat_wvel_min             =  -9.3771590158865E-05
(PID.TID 0000.0001) %MON dynstat_wvel_mean            =   2.1652370232269E-21
(PID.TID 0000.0001) %MON dynstat_wvel_sd              =   4.4456825988009E-05
(PID.TID 0000.0001) %MON dynstat_wvel_del2            =   1.2849387538234E-07
(PID.TID 0000.0001) %MON dynstat_theta_max            =   2.0576988634440E+01
(PID.TID 0000.0001) %MON dynstat_theta_min            =   1.5472944943787E+01
(PID.TID 0000.0001) %MON dynstat_theta_mean           =   1.7492345391416E+01
(PID.TID 0000.0001) %MON dynstat_theta_sd             =   1.4504011055958E+00
(PID.TID 0000.0001) %MON dynstat_theta_del2           =   1.3901234233123E-04
(PID.TID 0000.0001) %MON dynstat_salt_max             =   9.9786902063843E-01
(PID.TID 0000.0001) %MON dynstat_salt_min             =   4.0502623542530E-01
(PID.TID 0000.0001) %MON dynstat_salt_mean            =   7.4692403558911E-01
(PID.TID 0000.0001) %MON dynstat_salt_sd              =   1.9823316039770E-01
(PID.TID 0000.0001) %MON dynstat_salt_del2            =   2.6066461000208E-04
(PID.TID 0000.0001) %MON advcfl_uvel_max              =   2.4070062170349E-02
(PID.TID 0000.0001) %MON advcfl_vvel_max              =   5.8708255922197E-03
(PID.TID 0000.0001) %MON advcfl_wvel_max              =   1.7528070036977E-03
(PID.TID 0000.0001) %MON advcfl_W_hf_max              =   1.8780075039619E-03
(PID.TID 0000.0001) %MON pe_b_mean                    =   5.2867010456146E-06
(PID.TID 0000.0001) %MON ke_max                       =   9.2739243829005E-03
(PID.TID 0000.0001) %MON ke_mean                      =   5.7347040254785E-04
(PID.TID 0000.0001) %MON ke_vol                       =   7.6260000000000E+12
(PID.TID 0000.0001) // =======================================================
(PID.TID 0000.0001) // End MONITOR dynamic field statistics
(PID.TID 0000.0001) // =======================================================
 cg2d: Sum(rhs),rhsMax =  -3.96127575186256E-13  7.52493410931622E-03
(PID.TID 0000.0001)                    cg2d_init_res =    1.04082191445621E-02
(PID.TID 0000.0001)                       cg2d_iters =    29
(PID.TID 0000.0001)                         cg2d_res =    4.51577028116400E-14
(PID.TID 0000.0001) // =======================================================
(PID.TID 0000.0001) // Begin MONITOR dynamic field statistics
(PID.TID 0000.0001) // =======================================================
(PID.TID 0000.0001) %MON time_tsnumber                =                    16
(PID.TID 0000.0001) %MON time_secondsf                =   2.8800000000000E+04
(PID.TID 0000.0001) %MON dynstat_eta_max              =   7.2160583993805E-02
(PID.TID 0000.0001) %MON dynstat_eta_min              =  -7.3099728109645E-02
(PID.TID 0000.0001) %MON dynstat_eta_mean             =   1.2400842482044E-14
(PID.TID 0000.0001) %MON dynstat_eta_sd               =   5.1445206241204E-02
(PID.TID 0000.0001) %MON dynstat_eta_del2             =   9.0277935028511E-05
(PID.TID 0000.0001) %MON dynstat_uvel_max             =   1.3711541843453E-01
(PID.TID 0000.0001) %MON dynstat_uvel_min             =  -3.3366308136981E-02
(PID.TID 0000.0001) %MON dynstat_uvel_mean            =  -1.8573568302572E-04
(PID.TID 0000.0001) %MON dynstat_uvel_sd              =   3.4097803007225E-02
(PID.TID 0000.0001) %MON dynstat_uvel_del2            =   3.0588053821241E-05
(PID.TID 0000.0001) %MON dynstat_vvel_max             =   1.3578983976042E-02
(PID.TID 0000.0001) %MON dynstat_vvel_min             =  -2.9337946542487E-03
(PID.TID 0000.0001) %MON dynstat_vvel_mean            =   9.7725500309253E-07
(PID.TID 0000.0001) %MON dynstat_vvel_sd              =   3.3111113735106E-03
(PID.TID 0000.0001) %MON dynstat_vvel_del2            =   3.6383819743367E-06
(PID.TID 0000.0001) %MON dynstat_wvel_max             =   4.6881070917543E-05
(PID.TID 0000.0001) %MON dynstat_wvel_min             =  -5.2108253283620E-05
(PID.TID 0000.0001) %MON dynstat_wvel_mean            =   2.1652370232269E-21
(PID.TID 0000.0001) %MON dynstat_wvel_sd              =   2.2483437405934E-05
(PID.TID 0000.0001) %MON dynstat_wvel_del2            =   1.3988884166467E-07
(PID.TID 0000.0001) %MON dynstat_theta_max            =   2.0576862200054E+01
(PID.TID 0000.0001) %MON dynstat_theta_min            =   1.5472912261953E+01
(PID.TID 0000.0001) %MON dynstat_theta_mean           =   1.7492345401432E+01
(PID.TID 0000.0001) %MON dynstat_theta_sd             =   1.4504006956999E+00
(PID.TID 0000.0001) %MON dynstat_theta_del2           =   1.3891807264949E-04
(PID.TID 0000.0001) %MON dynstat_salt_max             =   9.9773768471945E-01
(PID.TID 0000.0001) %MON dynstat_salt_min             =   4.0562849194055E-01
(PID.TID 0000.0001) %MON dynstat_salt_mean            =   7.4692403400402E-01
(PID.TID 0000.0001) %MON dynstat_salt_sd              =   1.9807407022180E-01
(PID.TID 0000.0001) %MON dynstat_salt_del2            =   2.6302029582653E-04
(PID.TID 0000.0001) %MON advcfl_uvel_max              =   2.4680775318215E-02
(PID.TID 0000.0001) %MON advcfl_vvel_max              =   3.0926693818880E-03
(PID.TID 0000.0001) %MON advcfl_wvel_max              =   1.0005216281948E-03
(PID.TID 0000.0001) %MON advcfl_W_hf_max              =   1.0719874587802E-03
(PID.TID 0000.0001) %MON pe_b_mean                    =   5.2770806291488E-06
(PID.TID 0000.0001) %MON ke_max                       =   9.4925902937265E-03
(PID.TID 0000.0001) %MON ke_mean                      =   5.8663068764448E-04
(PID.TID 0000.0001) %MON ke_vol                       =   7.6260000000000E+12
(PID.TID 0000.0001) // =======================================================
(PID.TID 0000.0001) // End MONITOR dynamic field statistics
(PID.TID 0000.0001) // =======================================================
 cg2d: Sum(rhs),rhsMax =  -5.06261699229071E-13  7.53761160529176E-03
(PID.TID 0000.0001)                    cg2d_init_res =    1.01292684253627E-02
(PID.TID 0000.0001)                       cg2d_iters =    29
(PID.TID 0000.0001)                         cg2d_res =    4.52059997012188E-14
(PID.TID 0000.0001) // =======================================================
(PID.TID 0000.0001) // Begin MONITOR dynamic field statistics
(PID.TID 0000.0001) // =======================================================
(PID.TID 0000.0001) %MON time_tsnumber                =                    17
(PID.TID 0000.0001) %MON time_secondsf                =   3.0600000000000E+04
(PID.TID 0000.0001) %MON dynstat_eta_max              =   7.2113407926566E-02
(PID.TID 0000.0001) %MON dynstat_eta_min              =  -7.3070822214034E-02
(PID.TID 0000.0001) %MON dynstat_eta_mean             =   1.0690381450038E-14
(PID.TID 0000.0001) %MON dynstat_eta_sd               =   5.1418595158400E-02
(PID.TID 0000.0001) %MON dynstat_eta_del2             =   9.0196648598540E-05
(PID.TID 0000.0001) %MON dynstat_uvel_max             =   1.3822798939502E-01
(PID.TID 0000.0001) %MON dynstat_uvel_min             =  -3.3530638612967E-02
(PID.TID 0000.0001) %MON dynstat_uvel_mean            =  -1.8560774435252E-04
(PID.TID 0000.0001) %MON dynstat_uvel_sd              =   3.4350670252279E-02
(PID.TID 0000.0001) %MON dynstat_uvel_del2            =   3.1558273460886E-05
(PID.TID 0000.0001) %MON dynstat_vvel_max             =   1.2275556654560E-03
(PID.TID 0000.0001) %MON dynstat_vvel_min             =  -4.9583096504077E-04
(PID.TID 0000.0001) %MON dynstat_vvel_mean            =   5.5511270378520E-07
(PID.TID 0000.0001) %MON dynstat_vvel_sd              =   2.8615209058787E-04
(PID.TID 0000.0001) %MON dynstat_vvel_del2            =   2.6590201733180E-06
(PID.TID 0000.0001) %MON dynstat_wvel_max             =   5.9300573832052E-06
(PID.TID 0000.0001) %MON dynstat_wvel_min             =  -9.9688334934098E-06
(PID.TID 0000.0001) %MON dynstat_wvel_mean            =  -1.0149548546376E-22
(PID.TID 0000.0001) %MON dynstat_wvel_sd              =   1.9202236722065E-06
(PID.TID 0000.0001) %MON dynstat_wvel_del2            =   1.5083416347772E-07
(PID.TID 0000.0001) %MON dynstat_theta_max            =   2.0576747471595E+01
(PID.TID 0000.0001) %MON dynstat_theta_min            =   1.5472904783742E+01
(PID.TID 0000.0001) %MON dynstat_theta_mean           =   1.7492345407810E+01
(PID.TID 0000.0001) %MON dynstat_theta_sd             =   1.4504002891921E+00
(PID.TID 0000.0001) %MON dynstat_theta_del2           =   1.3884418039002E-04
(PID.TID 0000.0001) %MON dynstat_salt_max             =   9.9760979643910E-01
(PID.TID 0000.0001) %MON dynstat_salt_min             =   4.0622738221998E-01
(PID.TID 0000.0001) %MON dynstat_salt_mean            =   7.4692403307900E-01
(PID.TID 0000.0001) %MON dynstat_salt_sd              =   1.9791530218358E-01
(PID.TID 0000.0001) %MON dynstat_salt_del2            =   2.6533927094906E-04
(PID.TID 0000.0001) %MON advcfl_uvel_max              =   2.4881038091104E-02
(PID.TID 0000.0001) %MON advcfl_vvel_max              =   2.3895288867426E-04
(PID.TID 0000.0001) %MON advcfl_wvel_max              =   2.2390260827653E-04
(PID.TID 0000.0001) %MON advcfl_W_hf_max              =   2.3868583806185E-04
(PID.TID 0000.0001) %MON pe_b_mean                    =   5.2716226858338E-06
(PID.TID 0000.0001) %MON ke_max                       =   9.5539680434266E-03
(PID.TID 0000.0001) %MON ke_mean                      =   5.9004095855132E-04
(PID.TID 0000.0001) %MON ke_vol                       =   7.6260000000000E+12
(PID.TID 0000.0001) // =======================================================
(PID.TID 0000.0001) // End MONITOR dynamic field statistics
(PID.TID 0000.0001) // =======================================================
 cg2d: Sum(rhs),rhsMax =  -4.31654711974261E-13  7.54999688591724E-03
(PID.TID 0000.0001)                    cg2d_init_res =    1.02222480240917E-02
(PID.TID 0000.0001)                       cg2d_iters =    29
(PID.TID 0000.0001)                         cg2d_res =    4.40683922306774E-14
(PID.TID 0000.0001) // =======================================================
(PID.TID 0000.0001) // Begin MONITOR dynamic field statistics
(PID.TID 0000.0001) // =======================================================
(PID.TID 0000.0001) %MON time_tsnumber                =                    18
(PID.TID 0000.0001) %MON time_secondsf                =   3.2400000000000E+04
(PID.TID 0000.0001) %MON dynstat_eta_max              =   7.2106246567995E-02
(PID.TID 0000.0001) %MON dynstat_eta_min              =  -7.3060006384100E-02
(PID.TID 0000.0001) %MON dynstat_eta_mean             =   1.2243947675151E-14
(PID.TID 0000.0001) %MON dynstat_eta_sd               =   5.1412706785670E-02
(PID.TID 0000.0001) %MON dynstat_eta_del2             =   9.0148821828058E-05
(PID.TID 0000.0001) %MON dynstat_uvel_max             =   1.3703704541663E-01
(PID.TID 0000.0001) %MON dynstat_uvel_min             =  -3.3130213106639E-02
(PID.TID 0000.0001) %MON dynstat_uvel_mean            =  -1.8555541911459E-04
(PID.TID 0000.0001) %MON dynstat_uvel_sd              =   3.4029230717541E-02
(PID.TID 0000.0001) %MON dynstat_uvel_del2            =   3.2124161231989E-05
(PID.TID 0000.0001) %MON dynstat_vvel_max             =   3.4313824636985E-03
(PID.TID 0000.0001) %MON dynstat_vvel_min             =  -1.1567078820383E-02
(PID.TID 0000.0001) %MON dynstat_vvel_mean            =   1.2329049182387E-07
(PID.TID 0000.0001) %MON dynstat_vvel_sd              =   3.0941988781371E-03
(PID.TID 0000.0001) %MON dynstat_vvel_del2            =   3.6527359038829E-06
(PID.TID 0000.0001) %MON dynstat_wvel_max             =   4.4651421857913E-05
(PID.TID 0000.0001) %MON dynstat_wvel_min             =  -4.4705001151491E-05
(PID.TID 0000.0001) %MON dynstat_wvel_mean            =  -5.4130925580673E-21
(PID.TID 0000.0001) %MON dynstat_wvel_sd              =   2.2813324686339E-05
(PID.TID 0000.0001) %MON dynstat_wvel_del2            =   1.6088129207035E-07
(PID.TID 0000.0001) %MON dynstat_theta_max            =   2.0576644519830E+01
(PID.TID 0000.0001) %MON dynstat_theta_min            =   1.5472922612702E+01
(PID.TID 0000.0001) %MON dynstat_theta_mean           =   1.7492345410416E+01
(PID.TID 0000.0001) %MON dynstat_theta_sd             =   1.4503998860351E+00
(PID.TID 0000.0001) %MON dynstat_theta_del2           =   1.3879117684703E-04
(PID.TID 0000.0001) %MON dynstat_salt_max             =   9.9748552023401E-01
(PID.TID 0000.0001) %MON dynstat_salt_min             =   4.0682315430483E-01
(PID.TID 0000.0001) %MON dynstat_salt_mean            =   7.4692403286849E-01
(PID.TID 0000.0001) %MON dynstat_salt_sd              =   1.9775684859635E-01
(PID.TID 0000.0001) %MON dynstat_salt_del2            =   2.6761713908016E-04
(PID.TID 0000.0001) %MON advcfl_uvel_max              =   2.4666668174993E-02
(PID.TID 0000.0001) %MON advcfl_vvel_max              =   2.6344497179465E-03
(PID.TID 0000.0001) %MON advcfl_wvel_max              =   8.0221772267365E-04
(PID.TID 0000.0001) %MON advcfl_W_hf_max              =   8.5951898857891E-04
(PID.TID 0000.0001) %MON pe_b_mean                    =   5.2704153598938E-06
(PID.TID 0000.0001) %MON ke_max                       =   9.4566291918039E-03
(PID.TID 0000.0001) %MON ke_mean                      =   5.8362528451300E-04
(PID.TID 0000.0001) %MON ke_vol                       =   7.6260000000000E+12
(PID.TID 0000.0001) // =======================================================
(PID.TID 0000.0001) // End MONITOR dynamic field statistics
(PID.TID 0000.0001) // =======================================================
 cg2d: Sum(rhs),rhsMax =  -4.97379915032070E-13  7.56202108287025E-03
(PID.TID 0000.0001)                    cg2d_init_res =    1.06702636409808E-02
(PID.TID 0000.0001)                       cg2d_iters =    29
(PID.TID 0000.0001)                         cg2d_res =    4.17704981210308E-14
(PID.TID 0000.0001) // =======================================================
(PID.TID 0000.0001) // Begin MONITOR dynamic field statistics
(PID.TID 0000.0001) // =======================================================
(PID.TID 0000.0001) %MON time_tsnumber                =                    19
(PID.TID 0000.0001) %MON time_secondsf                =   3.4200000000000E+04
(PID.TID 0000.0001) %MON dynstat_eta_max              =   7.2138566621166E-02
(PID.TID 0000.0001) %MON dynstat_eta_min              =  -7.3067154419624E-02
(PID.TID 0000.0001) %MON dynstat_eta_mean             =   1.4062081613848E-14
(PID.TID 0000.0001) %MON dynstat_eta_sd               =   5.1427292617790E-02
(PID.TID 0000.0001) %MON dynstat_eta_del2             =   9.0134393288070E-05
(PID.TID 0000.0001) %MON dynstat_uvel_max             =   1.3359702780950E-01
(PID.TID 0000.0001) %MON dynstat_uvel_min             =  -3.2182329954329E-02
(PID.TID 0000.0001) %MON dynstat_uvel_mean            =  -1.8557887409891E-04
(PID.TID 0000.0001) %MON dynstat_uvel_sd              =   3.3147897242944E-02
(PID.TID 0000.0001) %MON dynstat_uvel_del2            =   3.2285973573547E-05
(PID.TID 0000.0001) %MON dynstat_vvel_max             =   6.3530191135975E-03
(PID.TID 0000.0001) %MON dynstat_vvel_min             =  -2.3619349909474E-02
(PID.TID 0000.0001) %MON dynstat_vvel_mean            =  -3.0333994758015E-07
(PID.TID 0000.0001) %MON dynstat_vvel_sd              =   6.1478264271824E-03
(PID.TID 0000.0001) %MON dynstat_vvel_del2            =   5.5726268213708E-06
(PID.TID 0000.0001) %MON dynstat_wvel_max             =   8.5646128799041E-05
(PID.TID 0000.0001) %MON dynstat_wvel_min             =  -8.4708712661752E-05
(PID.TID 0000.0001) %MON dynstat_wvel_mean            =  -4.3304740464538E-21
(PID.TID 0000.0001) %MON dynstat_wvel_sd              =   4.4358299475694E-05
(PID.TID 0000.0001) %MON dynstat_wvel_del2            =   1.6959423579447E-07
(PID.TID 0000.0001) %MON dynstat_theta_max            =   2.0576553024534E+01
(PID.TID 0000.0001) %MON dynstat_theta_min            =   1.5472965001456E+01
(PID.TID 0000.0001) %MON dynstat_theta_mean           =   1.7492345409244E+01
(PID.TID 0000.0001) %MON dynstat_theta_sd             =   1.4503994853662E+00
(PID.TID 0000.0001) %MON dynstat_theta_del2           =   1.3875887988089E-04
(PID.TID 0000.0001) %MON dynstat_salt_max             =   9.9736482788645E-01
(PID.TID 0000.0001) %MON dynstat_salt_min             =   4.0741589200971E-01
(PID.TID 0000.0001) %MON dynstat_salt_mean            =   7.4692403338317E-01
(PID.TID 0000.0001) %MON dynstat_salt_sd              =   1.9759870162180E-01
(PID.TID 0000.0001) %MON dynstat_salt_del2            =   2.6985038530072E-04
(PID.TID 0000.0001) %MON advcfl_uvel_max              =   2.4047465005710E-02
(PID.TID 0000.0001) %MON advcfl_vvel_max              =   5.3794039682212E-03
(PID.TID 0000.0001) %MON advcfl_wvel_max              =   1.5465675262935E-03
(PID.TID 0000.0001) %MON advcfl_W_hf_max              =   1.6570366353145E-03
(PID.TID 0000.0001) %MON pe_b_mean                    =   5.2734062274429E-06
(PID.TID 0000.0001) %MON ke_max                       =   9.2042425889091E-03
(PID.TID 0000.0001) %MON ke_mean                      =   5.6762276318679E-04
(PID.TID 0000.0001) %MON ke_vol                       =   7.6260000000000E+12
(PID.TID 0000.0001) // =======================================================
(PID.TID 0000.0001) // End MONITOR dynamic field statistics
(PID.TID 0000.0001) // =======================================================
 cg2d: Sum(rhs),rhsMax =  -5.66657831768680E-13  7.57377089656449E-03
(PID.TID 0000.0001)                    cg2d_init_res =    1.13393810976937E-02
(PID.TID 0000.0001)                       cg2d_iters =    29
(PID.TID 0000.0001)                         cg2d_res =    3.83409821300786E-14
(PID.TID 0000.0001) // =======================================================
(PID.TID 0000.0001) // Begin MONITOR dynamic field statistics
(PID.TID 0000.0001) // =======================================================
(PID.TID 0000.0001) %MON time_tsnumber                =                    20
(PID.TID 0000.0001) %MON time_secondsf                =   3.6000000000000E+04
(PID.TID 0000.0001) %MON dynstat_eta_max              =   7.2208208401961E-02
(PID.TID 0000.0001) %MON dynstat_eta_min              =  -7.3091833987929E-02
(PID.TID 0000.0001) %MON dynstat_eta_mean             =   1.7301497920867E-14
(PID.TID 0000.0001) %MON dynstat_eta_sd               =   5.1461406994950E-02
(PID.TID 0000.0001) %MON dynstat_eta_del2             =   9.0152208473269E-05
(PID.TID 0000.0001) %MON dynstat_uvel_max             =   1.2803771977288E-01
(PID.TID 0000.0001) %MON dynstat_uvel_min             =  -3.0723032287915E-02
(PID.TID 0000.0001) %MON dynstat_uvel_mean            =  -1.8567567689955E-04
(PID.TID 0000.0001) %MON dynstat_uvel_sd              =   3.1739951968552E-02
(PID.TID 0000.0001) %MON dynstat_uvel_del2            =   3.2058154028165E-05
(PID.TID 0000.0001) %MON dynstat_vvel_max             =   9.0404137970885E-03
(PID.TID 0000.0001) %MON dynstat_vvel_min             =  -3.4800902508212E-02
(PID.TID 0000.0001) %MON dynstat_vvel_mean            =  -7.1018037202459E-07
(PID.TID 0000.0001) %MON dynstat_vvel_sd              =   8.9786648746619E-03
(PID.TID 0000.0001) %MON dynstat_vvel_del2            =   7.5945530647944E-06
(PID.TID 0000.0001) %MON dynstat_wvel_max             =   1.2417024083260E-04
(PID.TID 0000.0001) %MON dynstat_wvel_min             =  -1.2320087557741E-04
(PID.TID 0000.0001) %MON dynstat_wvel_mean            =   4.3304740464538E-21
(PID.TID 0000.0001) %MON dynstat_wvel_sd              =   6.4289473040728E-05
(PID.TID 0000.0001) %MON dynstat_wvel_del2            =   1.7657727841008E-07
(PID.TID 0000.0001) %MON dynstat_theta_max            =   2.0576472287889E+01
(PID.TID 0000.0001) %MON dynstat_theta_min            =   1.5473030379527E+01
(PID.TID 0000.0001) %MON dynstat_theta_mean           =   1.7492345404418E+01
(PID.TID 0000.0001) %MON dynstat_theta_sd             =   1.4503990856328E+00
(PID.TID 0000.0001) %MON dynstat_theta_del2           =   1.3874641588489E-04
(PID.TID 0000.0001) %MON dynstat_salt_max             =   9.9724750476746E-01
(PID.TID 0000.0001) %MON dynstat_salt_min             =   4.0800552355102E-01
(PID.TID 0000.0001) %MON dynstat_salt_mean            =   7.4692403458934E-01
(PID.TID 0000.0001) %MON dynstat_salt_sd              =   1.9744085338572E-01
(PID.TID 0000.0001) %MON dynstat_salt_del2            =   2.7203626755672E-04
(PID.TID 0000.0001) %MON advcfl_uvel_max              =   2.3046789559119E-02
(PID.TID 0000.0001) %MON advcfl_vvel_max              =   7.9260485054783E-03
(PID.TID 0000.0001) %MON advcfl_wvel_max              =   2.2381306139902E-03
(PID.TID 0000.0001) %MON advcfl_W_hf_max              =   2.3979970864181E-03
(PID.TID 0000.0001) %MON pe_b_mean                    =   5.2804047929102E-06
(PID.TID 0000.0001) %MON ke_max                       =   8.8054402357242E-03
(PID.TID 0000.0001) %MON ke_mean                      =   5.4257902862184E-04
(PID.TID 0000.0001) %MON ke_vol                       =   7.6260000000000E+12
(PID.TID 0000.0001) // =======================================================
(PID.TID 0000.0001) // End MONITOR dynamic field statistics
(PID.TID 0000.0001) // =======================================================
(PID.TID 0000.0001) %CHECKPOINT        20 ckptA
(PID.TID 0000.0001)   Seconds in section "ALL                    [THE_MODEL_MAIN]":
(PID.TID 0000.0001)           User time:  0.39000000000000001
(PID.TID 0000.0001)         System time:  1.00000000000000002E-002
(PID.TID 0000.0001)     Wall clock time:  0.41765213012695313
(PID.TID 0000.0001)          No. starts:           1
(PID.TID 0000.0001)           No. stops:           1
(PID.TID 0000.0001)   Seconds in section "INITIALISE_FIXED       [THE_MODEL_MAIN]":
(PID.TID 0000.0001)           User time:  2.00000000000000004E-002
(PID.TID 0000.0001)         System time:   0.0000000000000000
(PID.TID 0000.0001)     Wall clock time:  3.81388664245605469E-002
(PID.TID 0000.0001)          No. starts:           1
(PID.TID 0000.0001)           No. stops:           1
(PID.TID 0000.0001)   Seconds in section "THE_MAIN_LOOP          [THE_MODEL_MAIN]":
(PID.TID 0000.0001)           User time:  0.37000000000000000
(PID.TID 0000.0001)         System time:  1.00000000000000002E-002
(PID.TID 0000.0001)     Wall clock time:  0.37947797775268555
(PID.TID 0000.0001)          No. starts:           1
(PID.TID 0000.0001)           No. stops:           1
(PID.TID 0000.0001)   Seconds in section "INITIALISE_VARIA    [THE_MAIN_LOOP]":
(PID.TID 0000.0001)           User time:   0.0000000000000000
(PID.TID 0000.0001)         System time:  1.00000000000000002E-002
(PID.TID 0000.0001)     Wall clock time:  6.46996498107910156E-003
(PID.TID 0000.0001)          No. starts:           1
(PID.TID 0000.0001)           No. stops:           1
(PID.TID 0000.0001)   Seconds in section "MAIN LOOP           [THE_MAIN_LOOP]":
(PID.TID 0000.0001)           User time:  0.37000000000000000
(PID.TID 0000.0001)         System time:   0.0000000000000000
(PID.TID 0000.0001)     Wall clock time:  0.37298202514648438
(PID.TID 0000.0001)          No. starts:           1
(PID.TID 0000.0001)           No. stops:           1
(PID.TID 0000.0001)   Seconds in section "FORWARD_STEP        [THE_MAIN_LOOP]":
(PID.TID 0000.0001)           User time:  0.37000000000000022
(PID.TID 0000.0001)         System time:   0.0000000000000000
(PID.TID 0000.0001)     Wall clock time:  0.37280368804931641
(PID.TID 0000.0001)          No. starts:          20
(PID.TID 0000.0001)           No. stops:          20
(PID.TID 0000.0001)   Seconds in section "LOAD_FIELDS_DRIVER  [FORWARD_STEP]":
(PID.TID 0000.0001)           User time:   0.0000000000000000
(PID.TID 0000.0001)         System time:   0.0000000000000000
(PID.TID 0000.0001)     Wall clock time:  5.19275665283203125E-004
(PID.TID 0000.0001)          No. starts:          20
(PID.TID 0000.0001)           No. stops:          20
(PID.TID 0000.0001)   Seconds in section "EXTERNAL_FLDS_LOAD [LOAD_FLDS_DRIVER]":
(PID.TID 0000.0001)           User time:   0.0000000000000000
(PID.TID 0000.0001)         System time:   0.0000000000000000
(PID.TID 0000.0001)     Wall clock time:  1.79529190063476563E-004
(PID.TID 0000.0001)          No. starts:          20
(PID.TID 0000.0001)           No. stops:          20
(PID.TID 0000.0001)   Seconds in section "DO_ATMOSPHERIC_PHYS [FORWARD_STEP]":
(PID.TID 0000.0001)           User time:   0.0000000000000000
(PID.TID 0000.0001)         System time:   0.0000000000000000
(PID.TID 0000.0001)     Wall clock time:  1.68561935424804688E-004
(PID.TID 0000.0001)          No. starts:          20
(PID.TID 0000.0001)           No. stops:          20
(PID.TID 0000.0001)   Seconds in section "DO_OCEANIC_PHYS     [FORWARD_STEP]":
(PID.TID 0000.0001)           User time:  4.00000000000000355E-002
(PID.TID 0000.0001)         System time:   0.0000000000000000
(PID.TID 0000.0001)     Wall clock time:  4.99792098999023438E-002
(PID.TID 0000.0001)          No. starts:          20
(PID.TID 0000.0001)           No. stops:          20
(PID.TID 0000.0001)   Seconds in section "THERMODYNAMICS      [FORWARD_STEP]":
(PID.TID 0000.0001)           User time:  0.11000000000000004
(PID.TID 0000.0001)         System time:   0.0000000000000000
(PID.TID 0000.0001)     Wall clock time:  0.10978889465332031
(PID.TID 0000.0001)          No. starts:          20
(PID.TID 0000.0001)           No. stops:          20
(PID.TID 0000.0001)   Seconds in section "DYNAMICS            [FORWARD_STEP]":
(PID.TID 0000.0001)           User time:  0.13000000000000000
(PID.TID 0000.0001)         System time:   0.0000000000000000
(PID.TID 0000.0001)     Wall clock time:  0.14034008979797363
(PID.TID 0000.0001)          No. starts:          20
(PID.TID 0000.0001)           No. stops:          20
(PID.TID 0000.0001)   Seconds in section "SOLVE_FOR_PRESSURE  [FORWARD_STEP]":
(PID.TID 0000.0001)           User time:  2.00000000000000178E-002
(PID.TID 0000.0001)         System time:   0.0000000000000000
(PID.TID 0000.0001)     Wall clock time:  9.96351242065429688E-003
(PID.TID 0000.0001)          No. starts:          20
(PID.TID 0000.0001)           No. stops:          20
(PID.TID 0000.0001)   Seconds in section "MOM_CORRECTION_STEP [FORWARD_STEP]":
(PID.TID 0000.0001)           User time:   0.0000000000000000
(PID.TID 0000.0001)         System time:   0.0000000000000000
(PID.TID 0000.0001)     Wall clock time:  6.39200210571289063E-003
(PID.TID 0000.0001)          No. starts:          20
(PID.TID 0000.0001)           No. stops:          20
(PID.TID 0000.0001)   Seconds in section "TRC_CORRECTION_STEP [FORWARD_STEP]":
(PID.TID 0000.0001)           User time:  3.00000000000000266E-002
(PID.TID 0000.0001)         System time:   0.0000000000000000
(PID.TID 0000.0001)     Wall clock time:  1.69517993927001953E-002
(PID.TID 0000.0001)          No. starts:          20
(PID.TID 0000.0001)           No. stops:          20
(PID.TID 0000.0001)   Seconds in section "BLOCKING_EXCHANGES  [FORWARD_STEP]":
(PID.TID 0000.0001)           User time:   0.0000000000000000
(PID.TID 0000.0001)         System time:   0.0000000000000000
(PID.TID 0000.0001)     Wall clock time:  1.66511535644531250E-002
(PID.TID 0000.0001)          No. starts:          20
(PID.TID 0000.0001)           No. stops:          20
(PID.TID 0000.0001)   Seconds in section "MONITOR             [FORWARD_STEP]":
(PID.TID 0000.0001)           User time:  4.00000000000000355E-002
(PID.TID 0000.0001)         System time:   0.0000000000000000
(PID.TID 0000.0001)     Wall clock time:  1.67748928070068359E-002
(PID.TID 0000.0001)          No. starts:          20
(PID.TID 0000.0001)           No. stops:          20
(PID.TID 0000.0001)   Seconds in section "DO_THE_MODEL_IO     [FORWARD_STEP]":
(PID.TID 0000.0001)           User time:   0.0000000000000000
(PID.TID 0000.0001)         System time:   0.0000000000000000
(PID.TID 0000.0001)     Wall clock time:  1.79052352905273438E-003
(PID.TID 0000.0001)          No. starts:          20
(PID.TID 0000.0001)           No. stops:          20
(PID.TID 0000.0001)   Seconds in section "DO_WRITE_PICKUP     [FORWARD_STEP]":
(PID.TID 0000.0001)           User time:   0.0000000000000000
(PID.TID 0000.0001)         System time:   0.0000000000000000
(PID.TID 0000.0001)     Wall clock time:  1.22976303100585938E-003
(PID.TID 0000.0001)          No. starts:          20
(PID.TID 0000.0001)           No. stops:          20
(PID.TID 0000.0001) // ======================================================
(PID.TID 0000.0001) // Tile <-> Tile communication statistics
(PID.TID 0000.0001) // ======================================================
(PID.TID 0000.0001) // o Tile number: 000001
(PID.TID 0000.0001) //         No. X exchanges =              0
(PID.TID 0000.0001) //            Max. X spins =              0
(PID.TID 0000.0001) //            Min. X spins =     1000000000
(PID.TID 0000.0001) //          Total. X spins =              0
(PID.TID 0000.0001) //            Avg. X spins =       0.00E+00
(PID.TID 0000.0001) //         No. Y exchanges =              0
(PID.TID 0000.0001) //            Max. Y spins =              0
(PID.TID 0000.0001) //            Min. Y spins =     1000000000
(PID.TID 0000.0001) //          Total. Y spins =              0
(PID.TID 0000.0001) //            Avg. Y spins =       0.00E+00
(PID.TID 0000.0001) // o Tile number: 000002
(PID.TID 0000.0001) //         No. X exchanges =              0
(PID.TID 0000.0001) //            Max. X spins =              0
(PID.TID 0000.0001) //            Min. X spins =     1000000000
(PID.TID 0000.0001) //          Total. X spins =              0
(PID.TID 0000.0001) //            Avg. X spins =       0.00E+00
(PID.TID 0000.0001) //         No. Y exchanges =              0
(PID.TID 0000.0001) //            Max. Y spins =              0
(PID.TID 0000.0001) //            Min. Y spins =     1000000000
(PID.TID 0000.0001) //          Total. Y spins =              0
(PID.TID 0000.0001) //            Avg. Y spins =       0.00E+00
(PID.TID 0000.0001) // o Thread number: 000001
(PID.TID 0000.0001) //            No. barriers =           6008
(PID.TID 0000.0001) //      Max. barrier spins =              1
(PID.TID 0000.0001) //      Min. barrier spins =              1
(PID.TID 0000.0001) //     Total barrier spins =           6008
(PID.TID 0000.0001) //      Avg. barrier spins =       1.00E+00
PROGRAM MAIN: Execution ended Normally
