(PID.TID 0000.0001) 
(PID.TID 0000.0001) // ======================================================
(PID.TID 0000.0001) //                      MITgcm UV
(PID.TID 0000.0001) //                      =========
(PID.TID 0000.0001) // ======================================================
(PID.TID 0000.0001) // execution environment starting up...
(PID.TID 0000.0001) 
(PID.TID 0000.0001) // MITgcmUV version:  checkpoint63j
(PID.TID 0000.0001) // Build user:        jmc
(PID.TID 0000.0001) // Build host:        baudelaire
(PID.TID 0000.0001) // Build date:        Fri Mar 16 17:23:22 EDT 2012
(PID.TID 0000.0001) 
(PID.TID 0000.0001) // =======================================================
(PID.TID 0000.0001) // Execution Environment parameter file "eedata"
(PID.TID 0000.0001) // =======================================================
(PID.TID 0000.0001) ># Example "eedata" file
(PID.TID 0000.0001) ># Lines beginning "#" are comments
(PID.TID 0000.0001) ># nTx - No. threads per process in X
(PID.TID 0000.0001) ># nTy - No. threads per process in Y
(PID.TID 0000.0001) > &EEPARMS
(PID.TID 0000.0001) > nTx=1,
(PID.TID 0000.0001) > nTy=1,
(PID.TID 0000.0001) > /
(PID.TID 0000.0001) ># Note: Some systems use & as the
(PID.TID 0000.0001) ># namelist terminator. Other systems
(PID.TID 0000.0001) ># use a / character (as shown here).
(PID.TID 0000.0001) 
(PID.TID 0000.0001) // =======================================================
(PID.TID 0000.0001) // Computational Grid Specification ( see files "SIZE.h" )
(PID.TID 0000.0001) //                                  ( and "eedata"       )
(PID.TID 0000.0001) // =======================================================
(PID.TID 0000.0001)      nPx =    1 ; /* No. processes in X */
(PID.TID 0000.0001)      nPy =    1 ; /* No. processes in Y */
(PID.TID 0000.0001)      nSx =    1 ; /* No. tiles in X per process */
(PID.TID 0000.0001)      nSy =    2 ; /* No. tiles in Y per process */
(PID.TID 0000.0001)      sNx =    1 ; /* Tile size in X */
(PID.TID 0000.0001)      sNy =   16 ; /* Tile size in Y */
(PID.TID 0000.0001)      OLx =    3 ; /* Tile overlap distance in X */
(PID.TID 0000.0001)      OLy =    3 ; /* Tile overlap distance in Y */
(PID.TID 0000.0001)      nTx =    1 ; /* No. threads in X per process */
(PID.TID 0000.0001)      nTy =    1 ; /* No. threads in Y per process */
(PID.TID 0000.0001)       Nr =   25 ; /* No. levels in the vertical   */
(PID.TID 0000.0001)       Nx =    1 ; /* Total domain size in X ( = nPx*nSx*sNx ) */
(PID.TID 0000.0001)       Ny =   32 ; /* Total domain size in Y ( = nPy*nSy*sNy ) */
(PID.TID 0000.0001)   nTiles =    2 ; /* Total no. tiles per process ( = nSx*nSy ) */
(PID.TID 0000.0001)   nProcs =    1 ; /* Total no. processes ( = nPx*nPy ) */
(PID.TID 0000.0001) nThreads =    1 ; /* Total no. threads per process ( = nTx*nTy ) */
(PID.TID 0000.0001) usingMPI =    F ; /* Flag used to control whether MPI is in use */
(PID.TID 0000.0001)                   /*  note: To execute a program with MPI calls */
(PID.TID 0000.0001)                   /*  it must be launched appropriately e.g     */
(PID.TID 0000.0001)                   /*  "mpirun -np 64 ......"                    */
(PID.TID 0000.0001) useCoupler=    F ;/* Flag used to control communications with   */
(PID.TID 0000.0001)                   /*  other model components, through a coupler */
(PID.TID 0000.0001) debugMode =    F ; /* print debug msg. (sequence of S/R calls)  */
(PID.TID 0000.0001) printMapIncludesZeros=    F ; /* print zeros in Std.Output maps */
(PID.TID 0000.0001) maxLengthPrt1D=   65 /* maxLength of 1D array printed to StdOut */
(PID.TID 0000.0001) 
(PID.TID 0000.0001) // ======================================================
(PID.TID 0000.0001) // Mapping of tiles to threads
(PID.TID 0000.0001) // ======================================================
(PID.TID 0000.0001) // -o- Thread   1, tiles (   1:   1,   1:   2)
(PID.TID 0000.0001) 
(PID.TID 0000.0001) // ======================================================
(PID.TID 0000.0001) // Tile <-> Tile connectvity table
(PID.TID 0000.0001) // ======================================================
(PID.TID 0000.0001) // Tile number: 000001 (process no. = 000001)
(PID.TID 0000.0001) //        WEST: Tile = 000001, Process = 000001, Comm = put
(PID.TID 0000.0001) //                bi = 000001, bj = 000001
(PID.TID 0000.0001) //        EAST: Tile = 000001, Process = 000001, Comm = put
(PID.TID 0000.0001) //                bi = 000001, bj = 000001
(PID.TID 0000.0001) //       SOUTH: Tile = 000002, Process = 000001, Comm = put
(PID.TID 0000.0001) //                bi = 000001, bj = 000002
(PID.TID 0000.0001) //       NORTH: Tile = 000002, Process = 000001, Comm = put
(PID.TID 0000.0001) //                bi = 000001, bj = 000002
(PID.TID 0000.0001) // Tile number: 000002 (process no. = 000001)
(PID.TID 0000.0001) //        WEST: Tile = 000002, Process = 000001, Comm = put
(PID.TID 0000.0001) //                bi = 000001, bj = 000002
(PID.TID 0000.0001) //        EAST: Tile = 000002, Process = 000001, Comm = put
(PID.TID 0000.0001) //                bi = 000001, bj = 000002
(PID.TID 0000.0001) //       SOUTH: Tile = 000001, Process = 000001, Comm = put
(PID.TID 0000.0001) //                bi = 000001, bj = 000001
(PID.TID 0000.0001) //       NORTH: Tile = 000001, Process = 000001, Comm = put
(PID.TID 0000.0001) //                bi = 000001, bj = 000001
(PID.TID 0000.0001) 
(PID.TID 0000.0001)  INI_PARMS: opening model parameter file "data"
(PID.TID 0000.0001)  OPEN_COPY_DATA_FILE: opening file data
(PID.TID 0000.0001) // =======================================================
(PID.TID 0000.0001) // Parameter file "data"
(PID.TID 0000.0001) // =======================================================
(PID.TID 0000.0001) ># ====================
(PID.TID 0000.0001) ># | Model parameters |
(PID.TID 0000.0001) ># ====================
(PID.TID 0000.0001) >#
(PID.TID 0000.0001) ># Continuous equation parameters
(PID.TID 0000.0001) > &PARM01
(PID.TID 0000.0001) > tRef=29., 28., 27., 26., 25., 24., 23., 22., 21., 20., 19., 18.,
(PID.TID 0000.0001) > 17., 16., 15., 14., 13., 12., 11., 10., 09., 07., 08., 06., 05.,
(PID.TID 0000.0001) > viscAr=2.E-4,
(PID.TID 0000.0001) > viscA4=12.E5,
(PID.TID 0000.0001) > no_slip_sides=.FALSE.,
(PID.TID 0000.0001) > no_slip_bottom=.TRUE.,
(PID.TID 0000.0001) > bottomDragLinear=1.E-3,
(PID.TID 0000.0001) >#bottomDragQuadratic=1.E-3,
(PID.TID 0000.0001) >#diffKrT=2.E-5,
(PID.TID 0000.0001) >#diffKrS=2.E-5,
(PID.TID 0000.0001) > diffKrNrT=6*1.E-2, 19*2.E-5,
(PID.TID 0000.0001) > diffKrNrS=6*1.E-2, 19*2.E-5,
(PID.TID 0000.0001) > diffKhT=0.E3,
(PID.TID 0000.0001) > diffKhS=0.E3,
(PID.TID 0000.0001) > beta=0.E-11,
(PID.TID 0000.0001) > f0  =1.E-4,
(PID.TID 0000.0001) > gravity=9.81,
(PID.TID 0000.0001) > eosType='LINEAR',
(PID.TID 0000.0001) > tAlpha=2.E-4,
(PID.TID 0000.0001) > sBeta =0.E-4,
(PID.TID 0000.0001) > rhoConst=1000.,
(PID.TID 0000.0001) > rhoNil=1000.,
(PID.TID 0000.0001) > rigidLid=.FALSE.,
(PID.TID 0000.0001) > implicitFreeSurface=.TRUE.,
(PID.TID 0000.0001) > implicitDiffusion=.TRUE.,
(PID.TID 0000.0001) > hFacMin=.1,
(PID.TID 0000.0001) > hMixCriteria=-0.1,
(PID.TID 0000.0001) >#hMixCriteria=1.5,
(PID.TID 0000.0001) > readBinaryPrec=64,
(PID.TID 0000.0001) > writeBinaryPrec=64,
(PID.TID 0000.0001) > /
(PID.TID 0000.0001) >
(PID.TID 0000.0001) ># Elliptic solver parameters
(PID.TID 0000.0001) > &PARM02
(PID.TID 0000.0001) > cg2dMaxIters=1000,
(PID.TID 0000.0001) > cg2dTargetResidual=1.E-13,
(PID.TID 0000.0001) > /
(PID.TID 0000.0001) >
(PID.TID 0000.0001) ># Time stepping parameters
(PID.TID 0000.0001) > &PARM03
(PID.TID 0000.0001) > startTime=0.,
(PID.TID 0000.0001) >#nTimeSteps=8641,
(PID.TID 0000.0001) > nTimeSteps=25,
(PID.TID 0000.0001) > deltaT=3600.,
(PID.TID 0000.0001) > cAdjFreq=-1.,
(PID.TID 0000.0001) > abEps=0.1,
(PID.TID 0000.0001) > pChkptFreq=0.,
(PID.TID 0000.0001) > chkptFreq =0.,
(PID.TID 0000.0001) > dumpFreq=2592000.,
(PID.TID 0000.0001) >#monitorFreq=864000.,
(PID.TID 0000.0001) > monitorSelect=1,
(PID.TID 0000.0001) > monitorFreq=1.,
(PID.TID 0000.0001) > /
(PID.TID 0000.0001) >
(PID.TID 0000.0001) ># Gridding parameters
(PID.TID 0000.0001) > &PARM04
(PID.TID 0000.0001) > usingCartesianGrid=.TRUE.,
(PID.TID 0000.0001) > delR= 10*20.,  24.,  29.,  35.,  42.,  51.,  61.,  74.,
(PID.TID 0000.0001) >          89., 107., 128., 155., 186., 224., 270., 325.,
(PID.TID 0000.0001) > delX=1*1.E5,
(PID.TID 0000.0001) > delY=32*1.E5,
(PID.TID 0000.0001) > /
(PID.TID 0000.0001) >
(PID.TID 0000.0001) ># Input datasets
(PID.TID 0000.0001) > &PARM05
(PID.TID 0000.0001) > hydrogThetaFile='t_ini.bin',
(PID.TID 0000.0001) > hydrogSaltFile ='s_ini.bin',
(PID.TID 0000.0001) > uVelInitFile   ='u_ini.bin',
(PID.TID 0000.0001) > bathyFile      ='topo_slp.bin',
(PID.TID 0000.0001) > /
(PID.TID 0000.0001) 
(PID.TID 0000.0001)  INI_PARMS ; starts to read PARM01
(PID.TID 0000.0001)  INI_PARMS ; read PARM01 : OK
(PID.TID 0000.0001)  INI_PARMS ; starts to read PARM02
(PID.TID 0000.0001)  INI_PARMS ; read PARM02 : OK
(PID.TID 0000.0001)  INI_PARMS ; starts to read PARM03
(PID.TID 0000.0001)  INI_PARMS ; read PARM03 : OK
(PID.TID 0000.0001)  INI_PARMS ; starts to read PARM04
(PID.TID 0000.0001)  INI_PARMS ; read PARM04 : OK
(PID.TID 0000.0001)  INI_PARMS ; starts to read PARM05
(PID.TID 0000.0001)  INI_PARMS ; read PARM05 : OK
(PID.TID 0000.0001)  INI_PARMS: finished reading file "data"
(PID.TID 0000.0001)  PACKAGES_BOOT: opening data.pkg
(PID.TID 0000.0001)  OPEN_COPY_DATA_FILE: opening file data.pkg
(PID.TID 0000.0001) // =======================================================
(PID.TID 0000.0001) // Parameter file "data.pkg"
(PID.TID 0000.0001) // =======================================================
(PID.TID 0000.0001) ># Packages
(PID.TID 0000.0001) > &PACKAGES
(PID.TID 0000.0001) >  useGMRedi=.TRUE.,
(PID.TID 0000.0001) >  useKPP=.FALSE.,
(PID.TID 0000.0001) >  useDiagnostics=.TRUE.,
(PID.TID 0000.0001) > /
(PID.TID 0000.0001) 
(PID.TID 0000.0001)  PACKAGES_BOOT: finished reading data.pkg
(PID.TID 0000.0001)  GM_READPARMS: opening data.gmredi
(PID.TID 0000.0001)  OPEN_COPY_DATA_FILE: opening file data.gmredi
(PID.TID 0000.0001) // =======================================================
(PID.TID 0000.0001) // Parameter file "data.gmredi"
(PID.TID 0000.0001) // =======================================================
(PID.TID 0000.0001) ># GM-Redi parameters
(PID.TID 0000.0001) > &GM_PARM01
(PID.TID 0000.0001) > GM_AdvForm=.TRUE.,
(PID.TID 0000.0001) > GM_useBVP = .TRUE.,
(PID.TID 0000.0001) >#GM_BVP_modeNumber=5,
(PID.TID 0000.0001) > GM_background_K=1000.,
(PID.TID 0000.0001) > GM_taper_scheme='linear',
(PID.TID 0000.0001) > GM_maxSlope    =1.E-02,
(PID.TID 0000.0001) > GM_facTrL2dz   = 0.,
(PID.TID 0000.0001) >#GM_facTrL2ML   = 5.,
(PID.TID 0000.0001) >#GM_maxTransLay = 500.,
(PID.TID 0000.0001) > GM_useSubMeso = .TRUE.,
(PID.TID 0000.0001) >#subMeso_Ceff  = 5.e-2,
(PID.TID 0000.0001) >#subMeso_LfMin = 5.e+3,
(PID.TID 0000.0001) > /
(PID.TID 0000.0001) >
(PID.TID 0000.0001) 
(PID.TID 0000.0001)  GM_READPARMS: finished reading data.gmredi
(PID.TID 0000.0001)  DIAGNOSTICS_READPARMS: opening data.diagnostics
(PID.TID 0000.0001)  OPEN_COPY_DATA_FILE: opening file data.diagnostics
(PID.TID 0000.0001) // =======================================================
(PID.TID 0000.0001) // Parameter file "data.diagnostics"
(PID.TID 0000.0001) // =======================================================
(PID.TID 0000.0001) ># Diagnostic Package Choices
(PID.TID 0000.0001) >#--------------------
(PID.TID 0000.0001) >#  dumpAtLast (logical): always write output at the end of simulation (default=F)
(PID.TID 0000.0001) >#  diag_mnc   (logical): write to NetCDF files (default=useMNC)
(PID.TID 0000.0001) >#--for each output-stream:
(PID.TID 0000.0001) >#  fileName(n) : prefix of the output file name (max 80c long) for outp.stream n
(PID.TID 0000.0001) >#  frequency(n):< 0 : write snap-shot output every |frequency| seconds
(PID.TID 0000.0001) >#               > 0 : write time-average output every frequency seconds
(PID.TID 0000.0001) >#  timePhase(n)     : write at time = timePhase + multiple of |frequency|
(PID.TID 0000.0001) >#    averagingFreq  : frequency (in s) for periodic averaging interval
(PID.TID 0000.0001) >#    averagingPhase : phase     (in s) for periodic averaging interval
(PID.TID 0000.0001) >#    repeatCycle    : number of averaging intervals in 1 cycle
(PID.TID 0000.0001) >#  levels(:,n) : list of levels to write to file (Notes: declared as REAL)
(PID.TID 0000.0001) >#                when this entry is missing, select all common levels of this list
(PID.TID 0000.0001) >#  fields(:,n) : list of selected diagnostics fields (8.c) in outp.stream n
(PID.TID 0000.0001) >#                (see "available_diagnostics.log" file for the full list of diags)
(PID.TID 0000.0001) >#  missing_value(n) : missing value for real-type fields in output file "n"
(PID.TID 0000.0001) >#  fileFlags(n)     : specific code (8c string) for output file "n"
(PID.TID 0000.0001) >#--------------------
(PID.TID 0000.0001) > &DIAGNOSTICS_LIST
(PID.TID 0000.0001) ># diag_mnc     = .FALSE.,
(PID.TID 0000.0001) >  fields(1:8,1) = 'ETAN    ','DETADT2 ','PHIBOT  ',
(PID.TID 0000.0001) >                  'MXLDEPTH','GM_BVPcW','GM_BVPcS',
(PID.TID 0000.0001) >                  'SubMesLf','SubMpsiY',
(PID.TID 0000.0001) >#                 'GM_hTrsL','GM_baseS','GM_rLamb',
(PID.TID 0000.0001) >#                 'GM_VisbK',
(PID.TID 0000.0001) >   levels(1,1) = 1.,
(PID.TID 0000.0001) >  fileName(1) = 'surfDiag',
(PID.TID 0000.0001) >  frequency(1) = -86400.,
(PID.TID 0000.0001) >  timePhase(1) = 0.,
(PID.TID 0000.0001) >
(PID.TID 0000.0001) >  fields(1:7,2)  = 'UVEL    ','VVEL    ','WVEL    ','PHIHYD  ',
(PID.TID 0000.0001) >                   'THETA   ','THETASQ ','UVELSQ  ',
(PID.TID 0000.0001) ># do not specify levels => all levels are selected
(PID.TID 0000.0001) >  fileName(2) = 'dynDiag',
(PID.TID 0000.0001) >  frequency(2) = -864000.,
(PID.TID 0000.0001) >  timePhase(2) = 0.,
(PID.TID 0000.0001) >
(PID.TID 0000.0001) >  fields(1:8,3)  = 'DRHODR  ','RHOAnoma',
(PID.TID 0000.0001) >                   'GM_Kwy  ','GM_Kwz  ','GM_Kvy  ',
(PID.TID 0000.0001) >                   'THETA   ',
(PID.TID 0000.0001) >                   'GM_PsiY ','GM_Kvz  ',
(PID.TID 0000.0001) >  fileName(3) = 'oceDiag',
(PID.TID 0000.0001) >  frequency(3) = -86400.,
(PID.TID 0000.0001) >  timePhase(3) = 0.,
(PID.TID 0000.0001) >
(PID.TID 0000.0001) >  fields(1:5,4)  = 'ADVy_TH ','ADVr_TH ',
(PID.TID 0000.0001) >                   'DFyE_TH ','DFrE_TH ',
(PID.TID 0000.0001) >                   'DFrI_TH ',
(PID.TID 0000.0001) >#                  'ADVx_SLT',
(PID.TID 0000.0001) >#  fileName(4) = 'flxDiag',
(PID.TID 0000.0001) >  frequency(4) = 1728000.,
(PID.TID 0000.0001) > /
(PID.TID 0000.0001) >
(PID.TID 0000.0001) >#--------------------
(PID.TID 0000.0001) ># Parameter for Diagnostics of per level statistics:
(PID.TID 0000.0001) >#--------------------
(PID.TID 0000.0001) >#  diagSt_mnc (logical): write stat-diags to NetCDF files (default=diag_mnc)
(PID.TID 0000.0001) >#  diagSt_regMaskFile : file containing the region-mask to read-in
(PID.TID 0000.0001) >#  nSetRegMskFile   : number of region-mask sets within the region-mask file
(PID.TID 0000.0001) >#  set_regMask(i)   : region-mask set-index that identifies the region "i"
(PID.TID 0000.0001) >#  val_regMask(i)   : region "i" identifier value in the region mask
(PID.TID 0000.0001) >#--for each output-stream:
(PID.TID 0000.0001) >#  stat_fName(n) : prefix of the output file name (max 80c long) for outp.stream n
(PID.TID 0000.0001) >#  stat_freq(n):< 0 : write snap-shot output every |stat_freq| seconds
(PID.TID 0000.0001) >#               > 0 : write time-average output every stat_freq seconds
(PID.TID 0000.0001) >#  stat_phase(n)    : write at time = stat_phase + multiple of |stat_freq|
(PID.TID 0000.0001) >#  stat_region(:,n) : list of "regions" (default: 1 region only=global)
(PID.TID 0000.0001) >#  stat_fields(:,n) : list of selected diagnostics fields (8.c) in outp.stream n
(PID.TID 0000.0001) >#                (see "available_diagnostics.log" file for the full list of diags)
(PID.TID 0000.0001) >#--------------------
(PID.TID 0000.0001) > &DIAG_STATIS_PARMS
(PID.TID 0000.0001) ># stat_fields(1:13,1) = 'ETAN    ','UVEL    ','VVEL    ','WVEL    ', 'THETA   ',
(PID.TID 0000.0001) >#                       'MXLDEPTH','SubMesLf','SubMpsiY','GM_PsiY ',
(PID.TID 0000.0001) >#                       'GM_Kwy  ','GM_Kwz  ','GM_Kvy  ','GM_Kvz  ',
(PID.TID 0000.0001) >##                      'GM_hTrsL','GM_baseS','GM_rLamb',
(PID.TID 0000.0001) >## stat_fName(1) = 'dynStDiag',
(PID.TID 0000.0001) >#   stat_freq(1) = 18000.,
(PID.TID 0000.0001) >## stat_phase(1) = 0.,
(PID.TID 0000.0001) > /
(PID.TID 0000.0001) 
(PID.TID 0000.0001) S/R DIAGNOSTICS_READPARMS, read namelist "diagnostics_list": start
(PID.TID 0000.0001) S/R DIAGNOSTICS_READPARMS, read namelist "diagnostics_list": OK
(PID.TID 0000.0001) S/R DIAGNOSTICS_READPARMS, read namelist "DIAG_STATIS_PARMS": start
(PID.TID 0000.0001) S/R DIAGNOSTICS_READPARMS, read namelist "DIAG_STATIS_PARMS": OK
(PID.TID 0000.0001)  DIAGNOSTICS_READPARMS: global parameter summary:
(PID.TID 0000.0001)  dumpAtLast = /* always write time-ave diags at the end */
(PID.TID 0000.0001)                   F
(PID.TID 0000.0001)     ;
(PID.TID 0000.0001)  diag_mnc =   /* write NetCDF output files */
(PID.TID 0000.0001)                   F
(PID.TID 0000.0001)     ;
(PID.TID 0000.0001)  useMissingValue = /* put MissingValue where mask = 0 */
(PID.TID 0000.0001)                   F
(PID.TID 0000.0001)     ;
(PID.TID 0000.0001)  diagCG_maxIters = /* max number of iters in diag_cg2d */
(PID.TID 0000.0001)                    1000
(PID.TID 0000.0001)     ;
(PID.TID 0000.0001)  diagCG_resTarget = /* residual target for diag_cg2d */
(PID.TID 0000.0001)                 1.000000000000000E-13
(PID.TID 0000.0001)     ;
(PID.TID 0000.0001) -----------------------------------------------------
(PID.TID 0000.0001)  DIAGNOSTICS_READPARMS: active diagnostics summary:
(PID.TID 0000.0001) -----------------------------------------------------
(PID.TID 0000.0001) Creating Output Stream: surfDiag
(PID.TID 0000.0001) Output Frequency:     -86400.000000 ; Phase:           0.000000
(PID.TID 0000.0001)  Averaging Freq.:          0.000000 , Phase:           0.000000 , Cycle:   1
(PID.TID 0000.0001)  missing value:  1.234567000000E+05 ; for integers:   123456789
(PID.TID 0000.0001)  Levels:       1.
(PID.TID 0000.0001)  Fields:    ETAN     DETADT2  PHIBOT   MXLDEPTH GM_BVPcW GM_BVPcS SubMesLf SubMpsiY
(PID.TID 0000.0001) Creating Output Stream: dynDiag
(PID.TID 0000.0001) Output Frequency:    -864000.000000 ; Phase:           0.000000
(PID.TID 0000.0001)  Averaging Freq.:          0.000000 , Phase:           0.000000 , Cycle:   1
(PID.TID 0000.0001)  missing value:  1.234567000000E+05 ; for integers:   123456789
(PID.TID 0000.0001)  Levels:    will be set later
(PID.TID 0000.0001)  Fields:    UVEL     VVEL     WVEL     PHIHYD   THETA    THETASQ  UVELSQ
(PID.TID 0000.0001) Creating Output Stream: oceDiag
(PID.TID 0000.0001) Output Frequency:     -86400.000000 ; Phase:           0.000000
(PID.TID 0000.0001)  Averaging Freq.:          0.000000 , Phase:           0.000000 , Cycle:   1
(PID.TID 0000.0001)  missing value:  1.234567000000E+05 ; for integers:   123456789
(PID.TID 0000.0001)  Levels:    will be set later
(PID.TID 0000.0001)  Fields:    DRHODR   RHOAnoma GM_Kwy   GM_Kwz   GM_Kvy   THETA    GM_PsiY  GM_Kvz
(PID.TID 0000.0001) -----------------------------------------------------
(PID.TID 0000.0001)  DIAGNOSTICS_READPARMS: statistics diags. summary:
(PID.TID 0000.0001) -----------------------------------------------------
(PID.TID 0000.0001) 
(PID.TID 0000.0001) SET_PARMS: done
(PID.TID 0000.0001) Enter INI_VERTICAL_GRID: setInterFDr=    T ; setCenterDr=    F
(PID.TID 0000.0001) %MON XC_max                       =   5.0000000000000E+04
(PID.TID 0000.0001) %MON XC_min                       =   5.0000000000000E+04
(PID.TID 0000.0001) %MON XC_mean                      =   5.0000000000000E+04
(PID.TID 0000.0001) %MON XC_sd                        =   0.0000000000000E+00
(PID.TID 0000.0001) %MON XG_max                       =   0.0000000000000E+00
(PID.TID 0000.0001) %MON XG_min                       =   0.0000000000000E+00
(PID.TID 0000.0001) %MON XG_mean                      =   0.0000000000000E+00
(PID.TID 0000.0001) %MON XG_sd                        =   0.0000000000000E+00
(PID.TID 0000.0001) %MON DXC_max                      =   1.0000000000000E+05
(PID.TID 0000.0001) %MON DXC_min                      =   1.0000000000000E+05
(PID.TID 0000.0001) %MON DXC_mean                     =   1.0000000000000E+05
(PID.TID 0000.0001) %MON DXC_sd                       =   0.0000000000000E+00
(PID.TID 0000.0001) %MON DXF_max                      =   1.0000000000000E+05
(PID.TID 0000.0001) %MON DXF_min                      =   1.0000000000000E+05
(PID.TID 0000.0001) %MON DXF_mean                     =   1.0000000000000E+05
(PID.TID 0000.0001) %MON DXF_sd                       =   0.0000000000000E+00
(PID.TID 0000.0001) %MON DXG_max                      =   1.0000000000000E+05
(PID.TID 0000.0001) %MON DXG_min                      =   1.0000000000000E+05
(PID.TID 0000.0001) %MON DXG_mean                     =   1.0000000000000E+05
(PID.TID 0000.0001) %MON DXG_sd                       =   0.0000000000000E+00
(PID.TID 0000.0001) %MON DXV_max                      =   1.0000000000000E+05
(PID.TID 0000.0001) %MON DXV_min                      =   1.0000000000000E+05
(PID.TID 0000.0001) %MON DXV_mean                     =   1.0000000000000E+05
(PID.TID 0000.0001) %MON DXV_sd                       =   0.0000000000000E+00
(PID.TID 0000.0001) %MON YC_max                       =   3.1500000000000E+06
(PID.TID 0000.0001) %MON YC_min                       =   5.0000000000000E+04
(PID.TID 0000.0001) %MON YC_mean                      =   1.6000000000000E+06
(PID.TID 0000.0001) %MON YC_sd                        =   9.2330926563097E+05
(PID.TID 0000.0001) %MON YG_max                       =   3.1000000000000E+06
(PID.TID 0000.0001) %MON YG_min                       =   0.0000000000000E+00
(PID.TID 0000.0001) %MON YG_mean                      =   1.5500000000000E+06
(PID.TID 0000.0001) %MON YG_sd                        =   9.2330926563097E+05
(PID.TID 0000.0001) %MON DYC_max                      =   1.0000000000000E+05
(PID.TID 0000.0001) %MON DYC_min                      =   1.0000000000000E+05
(PID.TID 0000.0001) %MON DYC_mean                     =   1.0000000000000E+05
(PID.TID 0000.0001) %MON DYC_sd                       =   0.0000000000000E+00
(PID.TID 0000.0001) %MON DYF_max                      =   1.0000000000000E+05
(PID.TID 0000.0001) %MON DYF_min                      =   1.0000000000000E+05
(PID.TID 0000.0001) %MON DYF_mean                     =   1.0000000000000E+05
(PID.TID 0000.0001) %MON DYF_sd                       =   0.0000000000000E+00
(PID.TID 0000.0001) %MON DYG_max                      =   1.0000000000000E+05
(PID.TID 0000.0001) %MON DYG_min                      =   1.0000000000000E+05
(PID.TID 0000.0001) %MON DYG_mean                     =   1.0000000000000E+05
(PID.TID 0000.0001) %MON DYG_sd                       =   0.0000000000000E+00
(PID.TID 0000.0001) %MON DYU_max                      =   1.0000000000000E+05
(PID.TID 0000.0001) %MON DYU_min                      =   1.0000000000000E+05
(PID.TID 0000.0001) %MON DYU_mean                     =   1.0000000000000E+05
(PID.TID 0000.0001) %MON DYU_sd                       =   0.0000000000000E+00
(PID.TID 0000.0001) %MON RA_max                       =   1.0000000000000E+10
(PID.TID 0000.0001) %MON RA_min                       =   1.0000000000000E+10
(PID.TID 0000.0001) %MON RA_mean                      =   1.0000000000000E+10
(PID.TID 0000.0001) %MON RA_sd                        =   0.0000000000000E+00
(PID.TID 0000.0001) %MON RAW_max                      =   1.0000000000000E+10
(PID.TID 0000.0001) %MON RAW_min                      =   1.0000000000000E+10
(PID.TID 0000.0001) %MON RAW_mean                     =   1.0000000000000E+10
(PID.TID 0000.0001) %MON RAW_sd                       =   0.0000000000000E+00
(PID.TID 0000.0001) %MON RAS_max                      =   1.0000000000000E+10
(PID.TID 0000.0001) %MON RAS_min                      =   1.0000000000000E+10
(PID.TID 0000.0001) %MON RAS_mean                     =   1.0000000000000E+10
(PID.TID 0000.0001) %MON RAS_sd                       =   0.0000000000000E+00
(PID.TID 0000.0001) %MON RAZ_max                      =   1.0000000000000E+10
(PID.TID 0000.0001) %MON RAZ_min                      =   1.0000000000000E+10
(PID.TID 0000.0001) %MON RAZ_mean                     =   1.0000000000000E+10
(PID.TID 0000.0001) %MON RAZ_sd                       =   0.0000000000000E+00
(PID.TID 0000.0001) %MON AngleCS_max                  =   1.0000000000000E+00
(PID.TID 0000.0001) %MON AngleCS_min                  =   1.0000000000000E+00
(PID.TID 0000.0001) %MON AngleCS_mean                 =   1.0000000000000E+00
(PID.TID 0000.0001) %MON AngleCS_sd                   =   0.0000000000000E+00
(PID.TID 0000.0001) %MON AngleSN_max                  =   0.0000000000000E+00
(PID.TID 0000.0001) %MON AngleSN_min                  =   0.0000000000000E+00
(PID.TID 0000.0001) %MON AngleSN_mean                 =   0.0000000000000E+00
(PID.TID 0000.0001) %MON AngleSN_sd                   =   0.0000000000000E+00
(PID.TID 0000.0001)  MDS_READ_FIELD: opening global file: topo_slp.bin
(PID.TID 0000.0001) // =======================================================
(PID.TID 0000.0001) // Field Model R_low (ini_masks_etc)
(PID.TID 0000.0001) // CMIN =         -1.999737326001201E+03
(PID.TID 0000.0001) // CMAX =         -1.400262673998799E+03
(PID.TID 0000.0001) // CINT =          2.220276488897786E+01
(PID.TID 0000.0001) // SYMBOLS (CMIN->CMAX): -abcdefghijklmnopqrstuvwxyz+
(PID.TID 0000.0001) //                  0.0: .
(PID.TID 0000.0001) // RANGE I (Lo:Hi:Step):(    -2:     4:     1)
(PID.TID 0000.0001) // RANGE J (Lo:Hi:Step):(    35:    -2:    -1)
(PID.TID 0000.0001) // RANGE K (Lo:Hi:Step):(   1:   1:   1)
(PID.TID 0000.0001) // =======================================================
(PID.TID 0000.0001) K =   1
(PID.TID 0000.0001) //
(PID.TID 0000.0001) // |--J--|2101234
(PID.TID 0000.0001) //     35 -------
(PID.TID 0000.0001) //     34 -------
(PID.TID 0000.0001) //     33 .......
(PID.TID 0000.0001) //     32 .......
(PID.TID 0000.0001) //     31 +++++++
(PID.TID 0000.0001) //     30 +++++++
(PID.TID 0000.0001) //     29 +++++++
(PID.TID 0000.0001) //     28 +++++++
(PID.TID 0000.0001) //     27 +++++++
(PID.TID 0000.0001) //     26 +++++++
(PID.TID 0000.0001) //     25 +++++++
(PID.TID 0000.0001) //     24 +++++++
(PID.TID 0000.0001) //     23 +++++++
(PID.TID 0000.0001) //     22 zzzzzzz
(PID.TID 0000.0001) //     21 yyyyyyy
(PID.TID 0000.0001) //     20 wwwwwww
(PID.TID 0000.0001) //     19 uuuuuuu
(PID.TID 0000.0001) //     18 sssssss
(PID.TID 0000.0001) //     17 ooooooo
(PID.TID 0000.0001) //     16 lllllll
(PID.TID 0000.0001) //     15 hhhhhhh
(PID.TID 0000.0001) //     14 fffffff
(PID.TID 0000.0001) //     19 uuuuuuu
(PID.TID 0000.0001) //     18 sssssss
(PID.TID 0000.0001) //     17 ooooooo
(PID.TID 0000.0001) //     16 lllllll
(PID.TID 0000.0001) //     15 hhhhhhh
(PID.TID 0000.0001) //     14 fffffff
(PID.TID 0000.0001) //     13 ddddddd
(PID.TID 0000.0001) //     12 bbbbbbb
(PID.TID 0000.0001) //     11 aaaaaaa
(PID.TID 0000.0001) //     10 aaaaaaa
(PID.TID 0000.0001) //      9 -------
(PID.TID 0000.0001) //      8 -------
(PID.TID 0000.0001) //      7 -------
(PID.TID 0000.0001) //      6 -------
(PID.TID 0000.0001) //      5 -------
(PID.TID 0000.0001) //      4 -------
(PID.TID 0000.0001) //      3 -------
(PID.TID 0000.0001) //      2 -------
(PID.TID 0000.0001) //      1 .......
(PID.TID 0000.0001) //      0 .......
(PID.TID 0000.0001) //     -1 +++++++
(PID.TID 0000.0001) //     -2 +++++++
(PID.TID 0000.0001) // =======================================================
(PID.TID 0000.0001) // END OF FIELD                                          =
(PID.TID 0000.0001) // =======================================================
(PID.TID 0000.0001) 
(PID.TID 0000.0001) // =======================================================
(PID.TID 0000.0001) // Field Model Ro_surf (ini_masks_etc)
(PID.TID 0000.0001) // CMIN =          1.000000000000000E+32
(PID.TID 0000.0001) // CMAX =         -1.000000000000000E+32
(PID.TID 0000.0001) // CINT =          0.000000000000000E+00
(PID.TID 0000.0001) // SYMBOLS (CMIN->CMAX): -abcdefghijklmnopqrstuvwxyz+
(PID.TID 0000.0001) //                  0.0: .
(PID.TID 0000.0001) // RANGE I (Lo:Hi:Step):(    -2:     4:     1)
(PID.TID 0000.0001) // RANGE J (Lo:Hi:Step):(    35:    -2:    -1)
(PID.TID 0000.0001) // RANGE K (Lo:Hi:Step):(   1:   1:   1)
(PID.TID 0000.0001) // =======================================================
(PID.TID 0000.0001) // =======================================================
(PID.TID 0000.0001) // END OF FIELD                                          =
(PID.TID 0000.0001) // =======================================================
(PID.TID 0000.0001) 
(PID.TID 0000.0001) // =======================================================
(PID.TID 0000.0001) // Field hFacC at iteration          0
(PID.TID 0000.0001) // CMIN =          1.000000000000000E+00
(PID.TID 0000.0001) // CMAX =          1.000000000000000E+00
(PID.TID 0000.0001) // CINT =          0.000000000000000E+00
(PID.TID 0000.0001) // SYMBOLS (CMIN->CMAX): -abcdefghijklmnopqrstuvwxyz+
(PID.TID 0000.0001) //                  0.0: .
(PID.TID 0000.0001) // RANGE I (Lo:Hi:Step):(    -2:     4:     1)
(PID.TID 0000.0001) // RANGE J (Lo:Hi:Step):(    35:    -2:    -1)
(PID.TID 0000.0001) // RANGE K (Lo:Hi:Step):(   1:   1:   1)
(PID.TID 0000.0001) // =======================================================
(PID.TID 0000.0001) // =======================================================
(PID.TID 0000.0001) // END OF FIELD                                          =
(PID.TID 0000.0001) // =======================================================
(PID.TID 0000.0001) 
(PID.TID 0000.0001) // =======================================================
(PID.TID 0000.0001) // Field hFacW at iteration          0
(PID.TID 0000.0001) // CMIN =          1.000000000000000E+00
(PID.TID 0000.0001) // CMAX =          1.000000000000000E+00
(PID.TID 0000.0001) // CINT =          0.000000000000000E+00
(PID.TID 0000.0001) // SYMBOLS (CMIN->CMAX): -abcdefghijklmnopqrstuvwxyz+
(PID.TID 0000.0001) //                  0.0: .
(PID.TID 0000.0001) // RANGE I (Lo:Hi:Step):(    -2:     4:     1)
(PID.TID 0000.0001) // RANGE J (Lo:Hi:Step):(    35:    -2:    -1)
(PID.TID 0000.0001) // RANGE K (Lo:Hi:Step):(   1:   1:   1)
(PID.TID 0000.0001) // =======================================================
(PID.TID 0000.0001) // =======================================================
(PID.TID 0000.0001) // END OF FIELD                                          =
(PID.TID 0000.0001) // =======================================================
(PID.TID 0000.0001) 
(PID.TID 0000.0001) // =======================================================
(PID.TID 0000.0001) // Field hFacS at iteration          0
(PID.TID 0000.0001) // CMIN =          1.000000000000000E+00
(PID.TID 0000.0001) // CMAX =          1.000000000000000E+00
(PID.TID 0000.0001) // CINT =          0.000000000000000E+00
(PID.TID 0000.0001) // SYMBOLS (CMIN->CMAX): -abcdefghijklmnopqrstuvwxyz+
(PID.TID 0000.0001) //                  0.0: .
(PID.TID 0000.0001) // RANGE I (Lo:Hi:Step):(    -2:     4:     1)
(PID.TID 0000.0001) // RANGE J (Lo:Hi:Step):(    35:    -2:    -1)
(PID.TID 0000.0001) // RANGE K (Lo:Hi:Step):(   1:   1:   1)
(PID.TID 0000.0001) // =======================================================
(PID.TID 0000.0001) // =======================================================
(PID.TID 0000.0001) // END OF FIELD                                          =
(PID.TID 0000.0001) // =======================================================
(PID.TID 0000.0001) 
(PID.TID 0000.0001) GAD_INIT_FIXED: GAD_OlMinSize=  1  0  1
(PID.TID 0000.0001) 
(PID.TID 0000.0001) // ===================================
(PID.TID 0000.0001) // GAD parameters :
(PID.TID 0000.0001) // ===================================
(PID.TID 0000.0001) tempAdvScheme =   /* Temp. Horiz.Advection scheme selector */
(PID.TID 0000.0001)                       2
(PID.TID 0000.0001)     ;
(PID.TID 0000.0001) tempVertAdvScheme =   /* Temp. Vert. Advection scheme selector */
(PID.TID 0000.0001)                       2
(PID.TID 0000.0001)     ;
(PID.TID 0000.0001) tempMultiDimAdvec =   /* use Muti-Dim Advec method for Temp */
(PID.TID 0000.0001)                   F
(PID.TID 0000.0001)     ;
(PID.TID 0000.0001) tempSOM_Advection = /* use 2nd Order Moment Advection for Temp */
(PID.TID 0000.0001)                   F
(PID.TID 0000.0001)     ;
(PID.TID 0000.0001) AdamsBashforthGt = /* apply Adams-Bashforth extrapolation on Gt */
(PID.TID 0000.0001)                   T
(PID.TID 0000.0001)     ;
(PID.TID 0000.0001) AdamsBashforth_T = /* apply Adams-Bashforth extrapolation on Temp */
(PID.TID 0000.0001)                   F
(PID.TID 0000.0001)     ;
(PID.TID 0000.0001) saltAdvScheme =   /* Salt. Horiz.advection scheme selector */
(PID.TID 0000.0001)                       2
(PID.TID 0000.0001)     ;
(PID.TID 0000.0001) saltVertAdvScheme =   /* Salt. Vert. Advection scheme selector */
(PID.TID 0000.0001)                       2
(PID.TID 0000.0001)     ;
(PID.TID 0000.0001) saltMultiDimAdvec =   /* use Muti-Dim Advec method for Salt */
(PID.TID 0000.0001)                   F
(PID.TID 0000.0001)     ;
(PID.TID 0000.0001) saltSOM_Advection = /* use 2nd Order Moment Advection for Salt */
(PID.TID 0000.0001)                   F
(PID.TID 0000.0001)     ;
(PID.TID 0000.0001) AdamsBashforthGs = /* apply Adams-Bashforth extrapolation on Gs */
(PID.TID 0000.0001)                   T
(PID.TID 0000.0001)     ;
(PID.TID 0000.0001) AdamsBashforth_S = /* apply Adams-Bashforth extrapolation on Salt */
(PID.TID 0000.0001)                   F
(PID.TID 0000.0001)     ;
(PID.TID 0000.0001) // ===================================
(PID.TID 0000.0001) ------------------------------------------------------------
(PID.TID 0000.0001) DIAGNOSTICS_SET_LEVELS: done
(PID.TID 0000.0001)  Total Nb of available Diagnostics: ndiagt=   204
(PID.TID 0000.0001)  write list of available Diagnostics to file: available_diagnostics.log
(PID.TID 0000.0001) SETDIAG: Allocate  1 x  1 Levels for Diagnostic #    23 ETAN
(PID.TID 0000.0001) SETDIAG: Allocate  1 x  1 Levels for Diagnostic #    25 DETADT2
(PID.TID 0000.0001) SETDIAG: Allocate  1 x  1 Levels for Diagnostic #    73 PHIBOT
(PID.TID 0000.0001) SETDIAG: Allocate  1 x  1 Levels for Diagnostic #    75 MXLDEPTH
(PID.TID 0000.0001) SETDIAG: Allocate  1 x  1 Levels for Diagnostic #   203 GM_BVPcW
(PID.TID 0000.0001) SETDIAG: Allocate  1 x  1 Levels for Diagnostic #   204 GM_BVPcS
(PID.TID 0000.0001) SETDIAG: Allocate  1 x  1 Levels for Diagnostic #   187 SubMesLf
(PID.TID 0000.0001) SETDIAG: Allocate  1 x  1 Levels for Diagnostic #   189 SubMpsiY
(PID.TID 0000.0001) SETDIAG: Allocate 25 x  1 Levels for Diagnostic #    30 UVEL
(PID.TID 0000.0001) SETDIAG: Allocate 25 x  1 Levels for Diagnostic #    31 VVEL
(PID.TID 0000.0001) SETDIAG: Allocate 25 x  1 Levels for Diagnostic #    32 WVEL
(PID.TID 0000.0001) SETDIAG: Allocate 25 x  1 Levels for Diagnostic #    71 PHIHYD
(PID.TID 0000.0001) SETDIAG: Allocate 25 x  1 Levels for Diagnostic #    26 THETA
(PID.TID 0000.0001) SETDIAG: Allocate 25 x  1 Levels for Diagnostic #    33 THETASQ
(PID.TID 0000.0001) SETDIAG: Allocate 25 x  1 Levels for Diagnostic #    36 UVELSQ
(PID.TID 0000.0001) SETDIAG: Allocate 25 x  1 Levels for Diagnostic #    76 DRHODR
(PID.TID 0000.0001) SETDIAG: Allocate 25 x  1 Levels for Diagnostic #    64 RHOAnoma
(PID.TID 0000.0001) SETDIAG: Allocate 25 x  1 Levels for Diagnostic #   195 GM_Kwy
(PID.TID 0000.0001) SETDIAG: Allocate 25 x  1 Levels for Diagnostic #   196 GM_Kwz
(PID.TID 0000.0001) SETDIAG: Allocate 25 x  1 Levels for Diagnostic #   191 GM_Kvy
(PID.TID 0000.0001) SETDIAG: Allocate 25 x  1 Levels for Diagnostic #    26 THETA
(PID.TID 0000.0001) SETDIAG: Allocate 25 x  1 Levels for Diagnostic #   198 GM_PsiY
(PID.TID 0000.0001) SETDIAG: Allocate 25 x  1 Levels for Diagnostic #   193 GM_Kvz
(PID.TID 0000.0001)   space allocated for all diagnostics:     383 levels
(PID.TID 0000.0001)   set mate pointer for diag #   203  GM_BVPcW , Parms: SU P    M1 , mate:   204
(PID.TID 0000.0001)   set mate pointer for diag #   204  GM_BVPcS , Parms: SV P    M1 , mate:   203
(PID.TID 0000.0001)   set mate pointer for diag #    30  UVEL     , Parms: UUR     MR , mate:    31
(PID.TID 0000.0001)   set mate pointer for diag #    31  VVEL     , Parms: VVR     MR , mate:    30
(PID.TID 0000.0001) DIAGNOSTICS_SET_POINTERS: Set levels for Outp.Stream: dynDiag
(PID.TID 0000.0001)  Levels:       1.   2.   3.   4.   5.   6.   7.   8.   9.  10.  11.  12.  13.  14.  15.  16.  17.  18.  19.  20.
(PID.TID 0000.0001)  Levels:      21.  22.  23.  24.  25.
(PID.TID 0000.0001) DIAGNOSTICS_SET_POINTERS: Set levels for Outp.Stream: oceDiag
(PID.TID 0000.0001)  Levels:       1.   2.   3.   4.   5.   6.   7.   8.   9.  10.  11.  12.  13.  14.  15.  16.  17.  18.  19.  20.
(PID.TID 0000.0001)  Levels:      21.  22.  23.  24.  25.
(PID.TID 0000.0001) DIAGNOSTICS_SET_POINTERS: done
(PID.TID 0000.0001) ------------------------------------------------------------
(PID.TID 0000.0001) DIAGSTATS_SET_REGIONS: define no region
(PID.TID 0000.0001) ------------------------------------------------------------
(PID.TID 0000.0001)   space allocated for all stats-diags:       0 levels
(PID.TID 0000.0001) DIAGSTATS_SET_POINTERS: done
(PID.TID 0000.0001) ------------------------------------------------------------
(PID.TID 0000.0001) %MON fCori_max                    =   1.0000000000000E-04
(PID.TID 0000.0001) %MON fCori_min                    =   1.0000000000000E-04
(PID.TID 0000.0001) %MON fCori_mean                   =   1.0000000000000E-04
(PID.TID 0000.0001) %MON fCori_sd                     =   2.7105054312138E-20
(PID.TID 0000.0001) %MON fCoriG_max                   =   1.0000000000000E-04
(PID.TID 0000.0001) %MON fCoriG_min                   =   1.0000000000000E-04
(PID.TID 0000.0001) %MON fCoriG_mean                  =   1.0000000000000E-04
(PID.TID 0000.0001) %MON fCoriG_sd                    =   2.7105054312138E-20
(PID.TID 0000.0001) %MON fCoriCos_max                 =   0.0000000000000E+00
(PID.TID 0000.0001) %MON fCoriCos_min                 =   0.0000000000000E+00
(PID.TID 0000.0001) %MON fCoriCos_mean                =   0.0000000000000E+00
(PID.TID 0000.0001) %MON fCoriCos_sd                  =   0.0000000000000E+00
(PID.TID 0000.0001) INI_CG2D: CG2D normalisation factor =  5.0006567712553626E-04
(PID.TID 0000.0001) 
(PID.TID 0000.0001) // =======================================================
(PID.TID 0000.0001) // Model configuration
(PID.TID 0000.0001) // =======================================================
(PID.TID 0000.0001) //
(PID.TID 0000.0001) // "Physical" paramters ( PARM01 in namelist )
(PID.TID 0000.0001) //
(PID.TID 0000.0001) buoyancyRelation = /* Type of relation to get Buoyancy */
(PID.TID 0000.0001)               'OCEANIC'
(PID.TID 0000.0001)     ;
(PID.TID 0000.0001) fluidIsAir   =  /* fluid major constituent is Air */
(PID.TID 0000.0001)                   F
(PID.TID 0000.0001)     ;
(PID.TID 0000.0001) fluidIsWater =  /* fluid major constituent is Water */
(PID.TID 0000.0001)                   T
(PID.TID 0000.0001)     ;
(PID.TID 0000.0001) usingPCoords =  /* use p (or p*) vertical coordinate */
(PID.TID 0000.0001)                   F
(PID.TID 0000.0001)     ;
(PID.TID 0000.0001) usingZCoords =  /* use z (or z*) vertical coordinate */
(PID.TID 0000.0001)                   T
(PID.TID 0000.0001)     ;
(PID.TID 0000.0001) tRef =   /* Reference temperature profile ( oC or K ) */
(PID.TID 0000.0001)                 2.900000000000000E+01,      /* K =  1 */
(PID.TID 0000.0001)                 2.800000000000000E+01,      /* K =  2 */
(PID.TID 0000.0001)                 2.700000000000000E+01,      /* K =  3 */
(PID.TID 0000.0001)                 2.600000000000000E+01,      /* K =  4 */
(PID.TID 0000.0001)                 2.500000000000000E+01,      /* K =  5 */
(PID.TID 0000.0001)                 2.400000000000000E+01,      /* K =  6 */
(PID.TID 0000.0001)                 2.300000000000000E+01,      /* K =  7 */
(PID.TID 0000.0001)                 2.200000000000000E+01,      /* K =  8 */
(PID.TID 0000.0001)                 2.100000000000000E+01,      /* K =  9 */
(PID.TID 0000.0001)                 2.000000000000000E+01,      /* K = 10 */
(PID.TID 0000.0001)                 1.900000000000000E+01,      /* K = 11 */
(PID.TID 0000.0001)                 1.800000000000000E+01,      /* K = 12 */
(PID.TID 0000.0001)                 1.700000000000000E+01,      /* K = 13 */
(PID.TID 0000.0001)                 1.600000000000000E+01,      /* K = 14 */
(PID.TID 0000.0001)                 1.500000000000000E+01,      /* K = 15 */
(PID.TID 0000.0001)                 1.400000000000000E+01,      /* K = 16 */
(PID.TID 0000.0001)                 1.300000000000000E+01,      /* K = 17 */
(PID.TID 0000.0001)                 1.200000000000000E+01,      /* K = 18 */
(PID.TID 0000.0001)                 1.100000000000000E+01,      /* K = 19 */
(PID.TID 0000.0001)                 1.000000000000000E+01,      /* K = 20 */
(PID.TID 0000.0001)                 9.000000000000000E+00,      /* K = 21 */
(PID.TID 0000.0001)                 7.000000000000000E+00,      /* K = 22 */
(PID.TID 0000.0001)                 8.000000000000000E+00,      /* K = 23 */
(PID.TID 0000.0001)                 6.000000000000000E+00,      /* K = 24 */
(PID.TID 0000.0001)                 5.000000000000000E+00       /* K = 25 */
(PID.TID 0000.0001)     ;
(PID.TID 0000.0001) sRef =   /* Reference salinity profile ( psu ) */
(PID.TID 0000.0001)    25 @  3.000000000000000E+01              /* K =  1: 25 */
(PID.TID 0000.0001)     ;
(PID.TID 0000.0001) viscAh  =   /* Lateral eddy viscosity ( m^2/s ) */
(PID.TID 0000.0001)                 0.000000000000000E+00
(PID.TID 0000.0001)     ;
(PID.TID 0000.0001) viscAhMax = /* Maximum lateral eddy viscosity ( m^2/s ) */
(PID.TID 0000.0001)                 1.000000000000000E+21
(PID.TID 0000.0001)     ;
(PID.TID 0000.0001) viscAhGrid = /* Grid dependent lateral eddy viscosity ( non-dim. ) */
(PID.TID 0000.0001)                 0.000000000000000E+00
(PID.TID 0000.0001)     ;
(PID.TID 0000.0001) useFullLeith = /* Use Full Form of Leith Viscosity on/off flag*/
(PID.TID 0000.0001)                   F
(PID.TID 0000.0001)     ;
(PID.TID 0000.0001) useStrainTensionVisc= /* Use StrainTension Form of Viscous Operator flag*/
(PID.TID 0000.0001)                   F
(PID.TID 0000.0001)     ;
(PID.TID 0000.0001) useAreaViscLength = /* Use area for visc length instead of geom. mean*/
(PID.TID 0000.0001)                   F
(PID.TID 0000.0001)     ;
(PID.TID 0000.0001) viscC2leith = /* Leith harmonic visc. factor (on grad(vort),non-dim.) */
(PID.TID 0000.0001)                 0.000000000000000E+00
(PID.TID 0000.0001)     ;
(PID.TID 0000.0001) viscC2leithD = /* Leith harmonic viscosity factor (on grad(div),non-dim.)*/
(PID.TID 0000.0001)                 0.000000000000000E+00
(PID.TID 0000.0001)     ;
(PID.TID 0000.0001) viscC2smag = /* Smagorinsky harmonic viscosity factor (non-dim.) */
(PID.TID 0000.0001)                 0.000000000000000E+00
(PID.TID 0000.0001)     ;
(PID.TID 0000.0001) viscA4  =   /* Lateral biharmonic viscosity ( m^4/s ) */
(PID.TID 0000.0001)                 1.200000000000000E+06
(PID.TID 0000.0001)     ;
(PID.TID 0000.0001) viscA4Max = /* Maximum biharmonic viscosity ( m^2/s ) */
(PID.TID 0000.0001)                 1.000000000000000E+21
(PID.TID 0000.0001)     ;
(PID.TID 0000.0001) viscA4Grid = /* Grid dependent biharmonic viscosity ( non-dim. ) */
(PID.TID 0000.0001)                 0.000000000000000E+00
(PID.TID 0000.0001)     ;
(PID.TID 0000.0001) viscC4leith = /* Leith biharm viscosity factor (on grad(vort), non-dim.)*/
(PID.TID 0000.0001)                 0.000000000000000E+00
(PID.TID 0000.0001)     ;
(PID.TID 0000.0001) viscC4leithD = /* Leith biharm viscosity factor (on grad(div), non-dim.) */
(PID.TID 0000.0001)                 0.000000000000000E+00
(PID.TID 0000.0001)     ;
(PID.TID 0000.0001) viscC4Smag = /* Smagorinsky biharm viscosity factor (non-dim) */
(PID.TID 0000.0001)                 0.000000000000000E+00
(PID.TID 0000.0001)     ;
(PID.TID 0000.0001) no_slip_sides =  /* Viscous BCs: No-slip sides */
(PID.TID 0000.0001)                   F
(PID.TID 0000.0001)     ;
(PID.TID 0000.0001) sideDragFactor = /* side-drag scaling factor (non-dim) */
(PID.TID 0000.0001)                 2.000000000000000E+00
(PID.TID 0000.0001)     ;
(PID.TID 0000.0001) viscArNr = /* vertical profile of vertical viscosity ( m^2/s )*/
(PID.TID 0000.0001)    25 @  2.000000000000000E-04              /* K =  1: 25 */
(PID.TID 0000.0001)     ;
(PID.TID 0000.0001) no_slip_bottom =  /* Viscous BCs: No-slip bottom */
(PID.TID 0000.0001)                   T
(PID.TID 0000.0001)     ;
(PID.TID 0000.0001) bottomDragLinear = /* linear bottom-drag coefficient ( m/s ) */
(PID.TID 0000.0001)                 1.000000000000000E-03
(PID.TID 0000.0001)     ;
(PID.TID 0000.0001) bottomDragQuadratic = /* quadratic bottom-drag coefficient (-) */
(PID.TID 0000.0001)                 0.000000000000000E+00
(PID.TID 0000.0001)     ;
(PID.TID 0000.0001) diffKhT =   /* Laplacian diffusion of heat laterally ( m^2/s ) */
(PID.TID 0000.0001)                 0.000000000000000E+00
(PID.TID 0000.0001)     ;
(PID.TID 0000.0001) diffK4T =   /* Biharmonic diffusion of heat laterally ( m^4/s ) */
(PID.TID 0000.0001)                 0.000000000000000E+00
(PID.TID 0000.0001)     ;
(PID.TID 0000.0001) diffKhS =   /* Laplacian diffusion of salt laterally ( m^2/s ) */
(PID.TID 0000.0001)                 0.000000000000000E+00
(PID.TID 0000.0001)     ;
(PID.TID 0000.0001) diffK4S =   /* Biharmonic diffusion of salt laterally ( m^4/s ) */
(PID.TID 0000.0001)                 0.000000000000000E+00
(PID.TID 0000.0001)     ;
(PID.TID 0000.0001) diffKrNrT = /* vertical profile of vertical diffusion of Temp ( m^2/s )*/
(PID.TID 0000.0001)     6 @  1.000000000000000E-02,             /* K =  1:  6 */
(PID.TID 0000.0001)    19 @  2.000000000000000E-05              /* K =  7: 25 */
(PID.TID 0000.0001)     ;
(PID.TID 0000.0001) diffKrNrS = /* vertical profile of vertical diffusion of Salt ( m^2/s )*/
(PID.TID 0000.0001)     6 @  1.000000000000000E-02,             /* K =  1:  6 */
(PID.TID 0000.0001)    19 @  2.000000000000000E-05              /* K =  7: 25 */
(PID.TID 0000.0001)     ;
(PID.TID 0000.0001) diffKrBL79surf = /* Surface diffusion for Bryan and Lewis 79 ( m^2/s ) */
(PID.TID 0000.0001)                 0.000000000000000E+00
(PID.TID 0000.0001)     ;
(PID.TID 0000.0001) diffKrBL79deep = /* Deep diffusion for Bryan and Lewis 1979 ( m^2/s ) */
(PID.TID 0000.0001)                 0.000000000000000E+00
(PID.TID 0000.0001)     ;
(PID.TID 0000.0001) diffKrBL79scl = /* Depth scale for Bryan and Lewis 1979 ( m ) */
(PID.TID 0000.0001)                 2.000000000000000E+02
(PID.TID 0000.0001)     ;
(PID.TID 0000.0001) diffKrBL79Ho = /* Turning depth for Bryan and Lewis 1979 ( m ) */
(PID.TID 0000.0001)                -2.000000000000000E+03
(PID.TID 0000.0001)     ;
(PID.TID 0000.0001) ivdc_kappa = /* Implicit Vertical Diffusivity for Convection ( m^2/s) */
(PID.TID 0000.0001)                 0.000000000000000E+00
(PID.TID 0000.0001)     ;
(PID.TID 0000.0001) hMixCriteria=  /* Criteria for mixed-layer diagnostic */
(PID.TID 0000.0001)                -1.000000000000000E-01
(PID.TID 0000.0001)     ;
(PID.TID 0000.0001) dRhoSmall =  /* Parameter for mixed-layer diagnostic */
(PID.TID 0000.0001)                 1.000000000000000E-06
(PID.TID 0000.0001)     ;
(PID.TID 0000.0001) hMixSmooth=  /* Smoothing parameter for mixed-layer diagnostic */
(PID.TID 0000.0001)                 0.000000000000000E+00
(PID.TID 0000.0001)     ;
(PID.TID 0000.0001) eosType =  /* Type of Equation of State */
(PID.TID 0000.0001)               'LINEAR'
(PID.TID 0000.0001)     ;
(PID.TID 0000.0001) tAlpha = /* Linear EOS thermal expansion coefficient ( 1/oC ) */
(PID.TID 0000.0001)                 2.000000000000000E-04
(PID.TID 0000.0001)     ;
(PID.TID 0000.0001) sBeta  = /* Linear EOS haline contraction coefficient ( 1/psu ) */
(PID.TID 0000.0001)                 0.000000000000000E+00
(PID.TID 0000.0001)     ;
(PID.TID 0000.0001) rhoNil    = /* Reference density for Linear EOS ( kg/m^3 ) */
(PID.TID 0000.0001)                 1.000000000000000E+03
(PID.TID 0000.0001)     ;
(PID.TID 0000.0001) celsius2K = /* 0 degree Celsius converted to Kelvin ( K ) */
(PID.TID 0000.0001)                 2.731500000000000E+02
(PID.TID 0000.0001)     ;
(PID.TID 0000.0001) rhoConst  = /* Reference density (Boussinesq)  ( kg/m^3 ) */
(PID.TID 0000.0001)                 1.000000000000000E+03
(PID.TID 0000.0001)     ;
(PID.TID 0000.0001) rhoFacC = /* normalized Reference density @ cell-Center (-) */
(PID.TID 0000.0001)    25 @  1.000000000000000E+00              /* K =  1: 25 */
(PID.TID 0000.0001)     ;
(PID.TID 0000.0001) rhoFacF = /* normalized Reference density @ W-Interface (-) */
(PID.TID 0000.0001)    26 @  1.000000000000000E+00              /* K =  1: 26 */
(PID.TID 0000.0001)     ;
(PID.TID 0000.0001) rhoConstFresh = /* Fresh-water reference density ( kg/m^3 ) */
(PID.TID 0000.0001)                 1.000000000000000E+03
(PID.TID 0000.0001)     ;
(PID.TID 0000.0001) gravity =   /* Gravitational acceleration ( m/s^2 ) */
(PID.TID 0000.0001)                 9.810000000000000E+00
(PID.TID 0000.0001)     ;
(PID.TID 0000.0001) gBaro =   /* Barotropic gravity ( m/s^2 ) */
(PID.TID 0000.0001)                 9.810000000000000E+00
(PID.TID 0000.0001)     ;
(PID.TID 0000.0001) rotationPeriod =   /* Rotation Period ( s ) */
(PID.TID 0000.0001)                 8.616400000000000E+04
(PID.TID 0000.0001)     ;
(PID.TID 0000.0001) omega =   /* Angular velocity ( rad/s ) */
(PID.TID 0000.0001)                 7.292123516990375E-05
(PID.TID 0000.0001)     ;
(PID.TID 0000.0001) f0 =   /* Reference coriolis parameter ( 1/s ) */
(PID.TID 0000.0001)                 1.000000000000000E-04
(PID.TID 0000.0001)     ;
(PID.TID 0000.0001) beta =   /* Beta ( 1/(m.s) ) */
(PID.TID 0000.0001)                 0.000000000000000E+00
(PID.TID 0000.0001)     ;
(PID.TID 0000.0001) fPrime =   /* Second coriolis parameter ( 1/s ) */
(PID.TID 0000.0001)                 0.000000000000000E+00
(PID.TID 0000.0001)     ;
(PID.TID 0000.0001) rigidLid =   /* Rigid lid on/off flag */
(PID.TID 0000.0001)                   F
(PID.TID 0000.0001)     ;
(PID.TID 0000.0001) implicitFreeSurface =   /* Implicit free surface on/off flag */
(PID.TID 0000.0001)                   T
(PID.TID 0000.0001)     ;
(PID.TID 0000.0001) freeSurfFac =   /* Implicit free surface factor */
(PID.TID 0000.0001)                 1.000000000000000E+00
(PID.TID 0000.0001)     ;
(PID.TID 0000.0001) implicSurfPress =  /* Surface Pressure implicit factor (0-1)*/
(PID.TID 0000.0001)                 1.000000000000000E+00
(PID.TID 0000.0001)     ;
(PID.TID 0000.0001) implicDiv2Dflow =  /* Barot. Flow Div. implicit factor (0-1)*/
(PID.TID 0000.0001)                 1.000000000000000E+00
(PID.TID 0000.0001)     ;
(PID.TID 0000.0001) exactConserv =  /* Exact Volume Conservation on/off flag*/
(PID.TID 0000.0001)                   F
(PID.TID 0000.0001)     ;
(PID.TID 0000.0001) linFSConserveTr = /* Tracer correction for Lin Free Surface on/off flag*/
(PID.TID 0000.0001)                   F
(PID.TID 0000.0001)     ;
(PID.TID 0000.0001) uniformLin_PhiSurf = /* use uniform Bo_surf on/off flag*/
(PID.TID 0000.0001)                   T
(PID.TID 0000.0001)     ;
(PID.TID 0000.0001) hFacMin =   /* minimum partial cell factor (hFac) */
(PID.TID 0000.0001)                 1.000000000000000E-01
(PID.TID 0000.0001)     ;
(PID.TID 0000.0001) hFacMinDr = /* minimum partial cell thickness ( m) */
(PID.TID 0000.0001)                 1.000000000000000E-01
(PID.TID 0000.0001)     ;
(PID.TID 0000.0001) nonlinFreeSurf = /* Non-linear Free Surf. options (-1,0,1,2,3)*/
(PID.TID 0000.0001)                       0
(PID.TID 0000.0001)      -1,0= Off ; 1,2,3= On, 2=+rescale gU,gV, 3=+update cg2d solv.
(PID.TID 0000.0001)     ;
(PID.TID 0000.0001) hFacInf =   /* lower threshold for hFac (nonlinFreeSurf only)*/
(PID.TID 0000.0001)                 2.000000000000000E-01
(PID.TID 0000.0001)     ;
(PID.TID 0000.0001) hFacSup =   /* upper threshold for hFac (nonlinFreeSurf only)*/
(PID.TID 0000.0001)                 2.000000000000000E+00
(PID.TID 0000.0001)     ;
(PID.TID 0000.0001) select_rStar = /* r* Vertical coord. options (=0 r coord.; >0 uses r*)*/
(PID.TID 0000.0001)                       0
(PID.TID 0000.0001)     ;
(PID.TID 0000.0001) selectAddFluid = /* option for mass source/sink of fluid (=0: off) */
(PID.TID 0000.0001)                       0
(PID.TID 0000.0001)     ;
(PID.TID 0000.0001) useRealFreshWaterFlux = /* Real Fresh Water Flux on/off flag*/
(PID.TID 0000.0001)                   F
(PID.TID 0000.0001)     ;
(PID.TID 0000.0001) temp_EvPrRn = /* Temp. of Evap/Prec/R (UNSET=use local T)(oC)*/
(PID.TID 0000.0001)                 1.234567000000000E+05
(PID.TID 0000.0001)     ;
(PID.TID 0000.0001) salt_EvPrRn = /* Salin. of Evap/Prec/R (UNSET=use local S)(psu)*/
(PID.TID 0000.0001)                 0.000000000000000E+00
(PID.TID 0000.0001)     ;
(PID.TID 0000.0001) temp_addMass = /* Temp. of addMass array (UNSET=use local T)(oC)*/
(PID.TID 0000.0001)                 1.234567000000000E+05
(PID.TID 0000.0001)     ;
(PID.TID 0000.0001) salt_addMass = /* Salin. of addMass array (UNSET=use local S)(psu)*/
(PID.TID 0000.0001)                 0.000000000000000E+00
(PID.TID 0000.0001)     ;
(PID.TID 0000.0001) convertFW2Salt = /* convert F.W. Flux to Salt Flux (-1=use local S)(psu)*/
(PID.TID 0000.0001)                 3.500000000000000E+01
(PID.TID 0000.0001)     ;
(PID.TID 0000.0001) use3Dsolver = /* use 3-D pressure solver on/off flag */
(PID.TID 0000.0001)                   F
(PID.TID 0000.0001)     ;
(PID.TID 0000.0001) nonHydrostatic =  /* Non-Hydrostatic on/off flag */
(PID.TID 0000.0001)                   F
(PID.TID 0000.0001)     ;
(PID.TID 0000.0001) nh_Am2 = /* Non-Hydrostatic terms scaling factor */
(PID.TID 0000.0001)                 1.000000000000000E+00
(PID.TID 0000.0001)     ;
(PID.TID 0000.0001) implicitNHPress = /* Non-Hyd Pressure implicit factor (0-1)*/
(PID.TID 0000.0001)                 1.000000000000000E+00
(PID.TID 0000.0001)     ;
(PID.TID 0000.0001) selectNHfreeSurf = /* Non-Hyd (free-)Surface option */
(PID.TID 0000.0001)                       0
(PID.TID 0000.0001)     ;
(PID.TID 0000.0001) quasiHydrostatic = /* Quasi-Hydrostatic on/off flag */
(PID.TID 0000.0001)                   F
(PID.TID 0000.0001)     ;
(PID.TID 0000.0001) calc_wVelocity = /* vertical velocity calculation on/off flag */
(PID.TID 0000.0001)                   T
(PID.TID 0000.0001)     ;
(PID.TID 0000.0001) momStepping =  /* Momentum equation on/off flag */
(PID.TID 0000.0001)                   T
(PID.TID 0000.0001)     ;
(PID.TID 0000.0001) vectorInvariantMomentum= /* Vector-Invariant Momentum on/off */
(PID.TID 0000.0001)                   F
(PID.TID 0000.0001)     ;
(PID.TID 0000.0001) momAdvection =  /* Momentum advection on/off flag */
(PID.TID 0000.0001)                   T
(PID.TID 0000.0001)     ;
(PID.TID 0000.0001) momViscosity =  /* Momentum viscosity on/off flag */
(PID.TID 0000.0001)                   T
(PID.TID 0000.0001)     ;
(PID.TID 0000.0001) momImplVertAdv= /* Momentum implicit vert. advection on/off*/
(PID.TID 0000.0001)                   F
(PID.TID 0000.0001)     ;
(PID.TID 0000.0001) implicitViscosity = /* Implicit viscosity on/off flag */
(PID.TID 0000.0001)                   F
(PID.TID 0000.0001)     ;
(PID.TID 0000.0001) metricTerms =  /* metric-Terms on/off flag */
(PID.TID 0000.0001)                   F
(PID.TID 0000.0001)     ;
(PID.TID 0000.0001) useNHMTerms = /* Non-Hydrostatic Metric-Terms on/off */
(PID.TID 0000.0001)                   F
(PID.TID 0000.0001)     ;
(PID.TID 0000.0001) selectCoriMap = /* Coriolis Map options (0,1,2,3)*/
(PID.TID 0000.0001)                       1
(PID.TID 0000.0001)     0= f-Plane ; 1= Beta-Plane ; 2= Spherical ; 3= read from file
(PID.TID 0000.0001)     ;
(PID.TID 0000.0001) use3dCoriolis = /* 3-D Coriolis on/off flag */
(PID.TID 0000.0001)                   F
(PID.TID 0000.0001)     ;
(PID.TID 0000.0001) useCoriolis =  /* Coriolis on/off flag */
(PID.TID 0000.0001)                   T
(PID.TID 0000.0001)     ;
(PID.TID 0000.0001) useCDscheme =  /* CD scheme on/off flag */
(PID.TID 0000.0001)                   F
(PID.TID 0000.0001)     ;
(PID.TID 0000.0001) useEnergyConservingCoriolis= /* Flx-Form Coriolis scheme flag */
(PID.TID 0000.0001)                   F
(PID.TID 0000.0001)     ;
(PID.TID 0000.0001) useJamartWetPoints= /* Coriolis WetPoints method flag */
(PID.TID 0000.0001)                   F
(PID.TID 0000.0001)     ;
(PID.TID 0000.0001) useJamartMomAdv= /* V.I Non-linear terms Jamart flag */
(PID.TID 0000.0001)                   F
(PID.TID 0000.0001)     ;
(PID.TID 0000.0001) useAbsVorticity= /* V.I Works with f+zeta in Coriolis */
(PID.TID 0000.0001)                   F
(PID.TID 0000.0001)     ;
(PID.TID 0000.0001) selectVortScheme= /* V.I Scheme selector for Vorticity-Term */
(PID.TID 0000.0001)               123456789
(PID.TID 0000.0001)    = 0 : enstrophy (Shallow-Water Eq.) conserving scheme by Sadourny, JAS 75
(PID.TID 0000.0001)    = 1 : same as 0 with modified hFac
(PID.TID 0000.0001)    = 2 : energy conserving scheme (used by Sadourny in JAS 75 paper)
(PID.TID 0000.0001)    = 3 : energy (general) and enstrophy (2D, nonDiv.) conserving scheme
(PID.TID 0000.0001)          from Sadourny (Burridge & Haseler, ECMWF Rep.4, 1977)
(PID.TID 0000.0001)     ;
(PID.TID 0000.0001) upwindVorticity= /* V.I Upwind bias vorticity flag */
(PID.TID 0000.0001)                   F
(PID.TID 0000.0001)     ;
(PID.TID 0000.0001) highOrderVorticity= /* V.I High order vort. advect. flag */
(PID.TID 0000.0001)                   F
(PID.TID 0000.0001)     ;
(PID.TID 0000.0001) upwindShear= /* V.I Upwind vertical Shear advection flag */
(PID.TID 0000.0001)                   F
(PID.TID 0000.0001)     ;
(PID.TID 0000.0001) selectKEscheme= /* V.I Kinetic Energy scheme selector */
(PID.TID 0000.0001)                       0
(PID.TID 0000.0001)     ;
(PID.TID 0000.0001) momForcing =  /* Momentum forcing on/off flag */
(PID.TID 0000.0001)                   T
(PID.TID 0000.0001)     ;
(PID.TID 0000.0001) momPressureForcing =  /* Momentum pressure term on/off flag */
(PID.TID 0000.0001)                   T
(PID.TID 0000.0001)     ;
(PID.TID 0000.0001) implicitIntGravWave= /* Implicit Internal Gravity Wave flag */
(PID.TID 0000.0001)                   F
(PID.TID 0000.0001)     ;
(PID.TID 0000.0001) staggerTimeStep =    /* Stagger time stepping on/off flag */
(PID.TID 0000.0001)                   F
(PID.TID 0000.0001)     ;
(PID.TID 0000.0001) doResetHFactors = /* reset thickness factors @ each time-step */
(PID.TID 0000.0001)                   F
(PID.TID 0000.0001)     ;
(PID.TID 0000.0001) multiDimAdvection =  /* enable/disable Multi-Dim Advection */
(PID.TID 0000.0001)                   T
(PID.TID 0000.0001)     ;
(PID.TID 0000.0001) useMultiDimAdvec =   /* Multi-Dim Advection is/is-not used */
(PID.TID 0000.0001)                   F
(PID.TID 0000.0001)     ;
(PID.TID 0000.0001) implicitDiffusion = /* Implicit Diffusion on/off flag */
(PID.TID 0000.0001)                   T
(PID.TID 0000.0001)     ;
(PID.TID 0000.0001) tempStepping =  /* Temperature equation on/off flag */
(PID.TID 0000.0001)                   T
(PID.TID 0000.0001)     ;
(PID.TID 0000.0001) tempAdvection=  /* Temperature advection on/off flag */
(PID.TID 0000.0001)                   T
(PID.TID 0000.0001)     ;
(PID.TID 0000.0001) tempImplVertAdv = /* Temp. implicit vert. advection on/off */
(PID.TID 0000.0001)                   F
(PID.TID 0000.0001)     ;
(PID.TID 0000.0001) tempForcing  =  /* Temperature forcing on/off flag */
(PID.TID 0000.0001)                   T
(PID.TID 0000.0001)     ;
(PID.TID 0000.0001) tempIsActiveTr = /* Temp. is a dynamically Active Tracer */
(PID.TID 0000.0001)                   T
(PID.TID 0000.0001)     ;
(PID.TID 0000.0001) saltStepping =  /* Salinity equation on/off flag */
(PID.TID 0000.0001)                   T
(PID.TID 0000.0001)     ;
(PID.TID 0000.0001) saltAdvection=  /* Salinity advection on/off flag */
(PID.TID 0000.0001)                   T
(PID.TID 0000.0001)     ;
(PID.TID 0000.0001) saltImplVertAdv = /* Sali. implicit vert. advection on/off */
(PID.TID 0000.0001)                   F
(PID.TID 0000.0001)     ;
(PID.TID 0000.0001) saltForcing  =  /* Salinity forcing on/off flag */
(PID.TID 0000.0001)                   T
(PID.TID 0000.0001)     ;
(PID.TID 0000.0001) saltIsActiveTr = /* Salt  is a dynamically Active Tracer */
(PID.TID 0000.0001)                   F
(PID.TID 0000.0001)     ;
(PID.TID 0000.0001)  readBinaryPrec = /* Precision used for reading binary files */
(PID.TID 0000.0001)                      64
(PID.TID 0000.0001)     ;
(PID.TID 0000.0001) writeBinaryPrec = /* Precision used for writing binary files */
(PID.TID 0000.0001)                      64
(PID.TID 0000.0001)     ;
(PID.TID 0000.0001)  globalFiles = /* write "global" (=not per tile) files */
(PID.TID 0000.0001)                   F
(PID.TID 0000.0001)     ;
(PID.TID 0000.0001)  useSingleCpuIO = /* only master MPI process does I/O */
(PID.TID 0000.0001)                   F
(PID.TID 0000.0001)     ;
(PID.TID 0000.0001) /* debLev[*]  : level of debug & auxiliary message printing */
(PID.TID 0000.0001) debLevZero =  0 ; /* level of disabled aux. msg printing */
(PID.TID 0000.0001)    debLevA =  1 ; /* level of minimum  aux. msg printing */
(PID.TID 0000.0001)    debLevB =  2 ; /* level of low aux. print (report read-file opening)*/
(PID.TID 0000.0001)    debLevC =  3 ; /* level of moderate debug prt (most pkgs debug msg) */
(PID.TID 0000.0001)    debLevD =  4 ; /* level of enhanced debug prt (add DEBUG_STATS prt) */
(PID.TID 0000.0001)    debLevE =  5 ; /* level of extensive debug printing */
(PID.TID 0000.0001) debugLevel =  /* select debug printing level */
(PID.TID 0000.0001)                       2
(PID.TID 0000.0001)     ;
(PID.TID 0000.0001) //
(PID.TID 0000.0001) // Elliptic solver(s) paramters ( PARM02 in namelist )
(PID.TID 0000.0001) //
(PID.TID 0000.0001) cg2dMaxIters =   /* Upper limit on 2d con. grad iterations  */
(PID.TID 0000.0001)                    1000
(PID.TID 0000.0001)     ;
(PID.TID 0000.0001) cg2dChkResFreq =   /* 2d con. grad convergence test frequency */
(PID.TID 0000.0001)                       1
(PID.TID 0000.0001)     ;
(PID.TID 0000.0001) cg2dTargetResidual =   /* 2d con. grad target residual  */
(PID.TID 0000.0001)                 1.000000000000000E-13
(PID.TID 0000.0001)     ;
(PID.TID 0000.0001) cg2dTargetResWunit =   /* CG2d target residual [W units] */
(PID.TID 0000.0001)                -1.000000000000000E+00
(PID.TID 0000.0001)     ;
(PID.TID 0000.0001) cg2dPreCondFreq =   /* Freq. for updating cg2d preconditioner */
(PID.TID 0000.0001)                       1
(PID.TID 0000.0001)     ;
(PID.TID 0000.0001) useSRCGSolver =  /* use single reduction CG solver(s) */
(PID.TID 0000.0001)                   F
(PID.TID 0000.0001)     ;
(PID.TID 0000.0001) printResidualFreq = /* Freq. for printing CG residual */
(PID.TID 0000.0001)                       0
(PID.TID 0000.0001)     ;
(PID.TID 0000.0001) //
(PID.TID 0000.0001) // Time stepping paramters ( PARM03 in namelist )
(PID.TID 0000.0001) //
(PID.TID 0000.0001) deltaTmom =   /* Momentum equation timestep ( s ) */
(PID.TID 0000.0001)                 3.600000000000000E+03
(PID.TID 0000.0001)     ;
(PID.TID 0000.0001) deltaTfreesurf = /* FreeSurface equation timestep ( s ) */
(PID.TID 0000.0001)                 3.600000000000000E+03
(PID.TID 0000.0001)     ;
(PID.TID 0000.0001) dTtracerLev =  /* Tracer equation timestep ( s ) */
(PID.TID 0000.0001)    25 @  3.600000000000000E+03              /* K =  1: 25 */
(PID.TID 0000.0001)     ;
(PID.TID 0000.0001) deltaTClock  =   /* Model clock timestep ( s ) */
(PID.TID 0000.0001)                 3.600000000000000E+03
(PID.TID 0000.0001)     ;
(PID.TID 0000.0001) cAdjFreq =   /* Convective adjustment interval ( s ) */
(PID.TID 0000.0001)                 3.600000000000000E+03
(PID.TID 0000.0001)     ;
(PID.TID 0000.0001) momForcingOutAB = /* =1: take Momentum Forcing out of Adams-Bash. stepping */
(PID.TID 0000.0001)                       0
(PID.TID 0000.0001)     ;
(PID.TID 0000.0001) tracForcingOutAB = /* =1: take T,S,pTr Forcing out of Adams-Bash. stepping */
(PID.TID 0000.0001)                       0
(PID.TID 0000.0001)     ;
(PID.TID 0000.0001) momDissip_In_AB = /* put Dissipation Tendency in Adams-Bash. stepping */
(PID.TID 0000.0001)                   T
(PID.TID 0000.0001)     ;
(PID.TID 0000.0001) doAB_onGtGs = /* apply AB on Tendencies (rather than on T,S)*/
(PID.TID 0000.0001)                   T
(PID.TID 0000.0001)     ;
(PID.TID 0000.0001) abEps =   /* Adams-Bashforth-2 stabilizing weight */
(PID.TID 0000.0001)                 1.000000000000000E-01
(PID.TID 0000.0001)     ;
(PID.TID 0000.0001) pickupStrictlyMatch= /* stop if pickup do not strictly match */
(PID.TID 0000.0001)                   T
(PID.TID 0000.0001)     ;
(PID.TID 0000.0001) nIter0   =   /* Run starting timestep number */
(PID.TID 0000.0001)                       0
(PID.TID 0000.0001)     ;
(PID.TID 0000.0001) nTimeSteps = /* Number of timesteps */
(PID.TID 0000.0001)                      25
(PID.TID 0000.0001)     ;
(PID.TID 0000.0001) nEndIter =   /* Run ending timestep number */
(PID.TID 0000.0001)                      25
(PID.TID 0000.0001)     ;
(PID.TID 0000.0001) baseTime =   /* Model base time ( s ) */
(PID.TID 0000.0001)                 0.000000000000000E+00
(PID.TID 0000.0001)     ;
(PID.TID 0000.0001) startTime =  /* Run start time ( s ) */
(PID.TID 0000.0001)                 0.000000000000000E+00
(PID.TID 0000.0001)     ;
(PID.TID 0000.0001) endTime  =   /* Integration ending time ( s ) */
(PID.TID 0000.0001)                 9.000000000000000E+04
(PID.TID 0000.0001)     ;
(PID.TID 0000.0001) pChkPtFreq = /* Permanent restart/pickup file interval ( s ) */
(PID.TID 0000.0001)                 0.000000000000000E+00
(PID.TID 0000.0001)     ;
(PID.TID 0000.0001) chkPtFreq  = /* Rolling restart/pickup file interval ( s ) */
(PID.TID 0000.0001)                 0.000000000000000E+00
(PID.TID 0000.0001)     ;
(PID.TID 0000.0001) pickup_write_mdsio =   /* Model IO flag. */
(PID.TID 0000.0001)                   T
(PID.TID 0000.0001)     ;
(PID.TID 0000.0001) pickup_read_mdsio =   /* Model IO flag. */
(PID.TID 0000.0001)                   T
(PID.TID 0000.0001)     ;
(PID.TID 0000.0001) pickup_write_immed =   /* Model IO flag. */
(PID.TID 0000.0001)                   F
(PID.TID 0000.0001)     ;
(PID.TID 0000.0001) writePickupAtEnd =   /* Model IO flag. */
(PID.TID 0000.0001)                   T
(PID.TID 0000.0001)     ;
(PID.TID 0000.0001) dumpFreq =   /* Model state write out interval ( s ). */
(PID.TID 0000.0001)                 2.592000000000000E+06
(PID.TID 0000.0001)     ;
(PID.TID 0000.0001) dumpInitAndLast= /* write out Initial & Last iter. model state */
(PID.TID 0000.0001)                   T
(PID.TID 0000.0001)     ;
(PID.TID 0000.0001) snapshot_mdsio =   /* Model IO flag. */
(PID.TID 0000.0001)                   T
(PID.TID 0000.0001)     ;
(PID.TID 0000.0001) monitorFreq =   /* Monitor output interval ( s ). */
(PID.TID 0000.0001)                 1.000000000000000E+00
(PID.TID 0000.0001)     ;
(PID.TID 0000.0001) monitorSelect = /* select group of variables to monitor */
(PID.TID 0000.0001)                       1
(PID.TID 0000.0001)     ;
(PID.TID 0000.0001) monitor_stdio =   /* Model IO flag. */
(PID.TID 0000.0001)                   T
(PID.TID 0000.0001)     ;
(PID.TID 0000.0001) externForcingPeriod =   /* forcing period (s) */
(PID.TID 0000.0001)                 0.000000000000000E+00
(PID.TID 0000.0001)     ;
(PID.TID 0000.0001) externForcingCycle =   /* period of the cyle (s). */
(PID.TID 0000.0001)                 0.000000000000000E+00
(PID.TID 0000.0001)     ;
(PID.TID 0000.0001) tauThetaClimRelax =   /* relaxation time scale (s) */
(PID.TID 0000.0001)                 0.000000000000000E+00
(PID.TID 0000.0001)     ;
(PID.TID 0000.0001) tauSaltClimRelax =   /* relaxation time scale (s) */
(PID.TID 0000.0001)                 0.000000000000000E+00
(PID.TID 0000.0001)     ;
(PID.TID 0000.0001) latBandClimRelax =   /* max. Lat. where relaxation */
(PID.TID 0000.0001)                 9.600000000000000E+06
(PID.TID 0000.0001)     ;
(PID.TID 0000.0001) //
(PID.TID 0000.0001) // Gridding paramters ( PARM04 in namelist )
(PID.TID 0000.0001) //
(PID.TID 0000.0001) usingCartesianGrid = /* Cartesian coordinates flag ( True/False ) */
(PID.TID 0000.0001)                   T
(PID.TID 0000.0001)     ;
(PID.TID 0000.0001) usingCylindricalGrid = /* Cylindrical coordinates flag ( True/False ) */
(PID.TID 0000.0001)                   F
(PID.TID 0000.0001)     ;
(PID.TID 0000.0001) usingSphericalPolarGrid = /* Spherical coordinates flag ( True/False ) */
(PID.TID 0000.0001)                   F
(PID.TID 0000.0001)     ;
(PID.TID 0000.0001) usingCurvilinearGrid = /* Curvilinear coordinates flag ( True/False ) */
(PID.TID 0000.0001)                   F
(PID.TID 0000.0001)     ;
(PID.TID 0000.0001) selectSigmaCoord = /* Hybrid-Sigma Vert. Coordinate option */
(PID.TID 0000.0001)                       0
(PID.TID 0000.0001)     ;
(PID.TID 0000.0001) Ro_SeaLevel = /* r(1) ( units of r ==  m ) */
(PID.TID 0000.0001)                 0.000000000000000E+00
(PID.TID 0000.0001)     ;
(PID.TID 0000.0001) rSigmaBnd = /* r/sigma transition ( units of r ==  m ) */
(PID.TID 0000.0001)                 1.234567000000000E+05
(PID.TID 0000.0001)     ;
(PID.TID 0000.0001) rkSign =   /* index orientation relative to vertical coordinate */
(PID.TID 0000.0001)                -1.000000000000000E+00
(PID.TID 0000.0001)     ;
(PID.TID 0000.0001) gravitySign = /* gravity orientation relative to vertical coordinate */
(PID.TID 0000.0001)                -1.000000000000000E+00
(PID.TID 0000.0001)     ;
(PID.TID 0000.0001) mass2rUnit = /* convert mass per unit area [kg/m2] to r-units [m] */
(PID.TID 0000.0001)                 1.000000000000000E-03
(PID.TID 0000.0001)     ;
(PID.TID 0000.0001) rUnit2mass = /* convert r-units [m] to mass per unit area [kg/m2] */
(PID.TID 0000.0001)                 1.000000000000000E+03
(PID.TID 0000.0001)     ;
(PID.TID 0000.0001) drC =   /* C spacing ( units of r ) */
(PID.TID 0000.0001)                 1.000000000000000E+01,      /* K =  1 */
(PID.TID 0000.0001)     9 @  2.000000000000000E+01,             /* K =  2: 10 */
(PID.TID 0000.0001)                 2.200000000000000E+01,      /* K = 11 */
(PID.TID 0000.0001)                 2.650000000000000E+01,      /* K = 12 */
(PID.TID 0000.0001)                 3.200000000000000E+01,      /* K = 13 */
(PID.TID 0000.0001)                 3.850000000000000E+01,      /* K = 14 */
(PID.TID 0000.0001)                 4.650000000000000E+01,      /* K = 15 */
(PID.TID 0000.0001)                 5.600000000000000E+01,      /* K = 16 */
(PID.TID 0000.0001)                 6.750000000000000E+01,      /* K = 17 */
(PID.TID 0000.0001)                 8.150000000000000E+01,      /* K = 18 */
(PID.TID 0000.0001)                 9.800000000000000E+01,      /* K = 19 */
(PID.TID 0000.0001)                 1.175000000000000E+02,      /* K = 20 */
(PID.TID 0000.0001)                 1.415000000000000E+02,      /* K = 21 */
(PID.TID 0000.0001)                 1.705000000000000E+02,      /* K = 22 */
(PID.TID 0000.0001)                 2.050000000000000E+02,      /* K = 23 */
(PID.TID 0000.0001)                 2.470000000000000E+02,      /* K = 24 */
(PID.TID 0000.0001)                 2.975000000000000E+02       /* K = 25 */
(PID.TID 0000.0001)     ;
(PID.TID 0000.0001) drF =   /* W spacing ( units of r ) */
(PID.TID 0000.0001)    10 @  2.000000000000000E+01,             /* K =  1: 10 */
(PID.TID 0000.0001)                 2.400000000000000E+01,      /* K = 11 */
(PID.TID 0000.0001)                 2.900000000000000E+01,      /* K = 12 */
(PID.TID 0000.0001)                 3.500000000000000E+01,      /* K = 13 */
(PID.TID 0000.0001)                 4.200000000000000E+01,      /* K = 14 */
(PID.TID 0000.0001)                 5.100000000000000E+01,      /* K = 15 */
(PID.TID 0000.0001)                 6.100000000000000E+01,      /* K = 16 */
(PID.TID 0000.0001)                 7.400000000000000E+01,      /* K = 17 */
(PID.TID 0000.0001)                 8.900000000000000E+01,      /* K = 18 */
(PID.TID 0000.0001)                 1.070000000000000E+02,      /* K = 19 */
(PID.TID 0000.0001)                 1.280000000000000E+02,      /* K = 20 */
(PID.TID 0000.0001)                 1.550000000000000E+02,      /* K = 21 */
(PID.TID 0000.0001)                 1.860000000000000E+02,      /* K = 22 */
(PID.TID 0000.0001)                 2.240000000000000E+02,      /* K = 23 */
(PID.TID 0000.0001)                 2.700000000000000E+02,      /* K = 24 */
(PID.TID 0000.0001)                 3.250000000000000E+02       /* K = 25 */
(PID.TID 0000.0001)     ;
(PID.TID 0000.0001) delX = /* U spacing ( m - cartesian, degrees - spherical ) */
(PID.TID 0000.0001)                 1.000000000000000E+05       /* I =  1 */
(PID.TID 0000.0001)     ;
(PID.TID 0000.0001) delY = /* V spacing ( m - cartesian, degrees - spherical ) */
(PID.TID 0000.0001)    32 @  1.000000000000000E+05              /* J =  1: 32 */
(PID.TID 0000.0001)     ;
(PID.TID 0000.0001) xgOrigin = /* X-axis origin of West  edge (cartesian: m, lat-lon: deg.) */
(PID.TID 0000.0001)                 0.000000000000000E+00
(PID.TID 0000.0001)     ;
(PID.TID 0000.0001) ygOrigin = /* Y-axis origin of South edge (cartesian: m, lat-lon: deg.) */
(PID.TID 0000.0001)                 0.000000000000000E+00
(PID.TID 0000.0001)     ;
(PID.TID 0000.0001) rSphere =  /* Radius ( ignored - cartesian, m - spherical ) */
(PID.TID 0000.0001)                 6.370000000000000E+06
(PID.TID 0000.0001)     ;
(PID.TID 0000.0001) deepAtmosphere = /* Deep/Shallow Atmosphere flag (True/False) */
(PID.TID 0000.0001)                   F
(PID.TID 0000.0001)     ;
(PID.TID 0000.0001) xC =  /* xC(:,1,:,1) : P-point X coord ( deg. or m if cartesian) */
(PID.TID 0000.0001)                 5.000000000000000E+04       /* I =  1 */
(PID.TID 0000.0001)     ;
(PID.TID 0000.0001) yC =  /* yC(1,:,1,:) : P-point Y coord ( deg. or m if cartesian) */
(PID.TID 0000.0001)                 5.000000000000000E+04,      /* J =  1 */
(PID.TID 0000.0001)                 1.500000000000000E+05,      /* J =  2 */
(PID.TID 0000.0001)                 2.500000000000000E+05,      /* J =  3 */
(PID.TID 0000.0001)                 3.500000000000000E+05,      /* J =  4 */
(PID.TID 0000.0001)                 4.500000000000000E+05,      /* J =  5 */
(PID.TID 0000.0001)                 5.500000000000000E+05,      /* J =  6 */
(PID.TID 0000.0001)                 6.500000000000000E+05,      /* J =  7 */
(PID.TID 0000.0001)                 7.500000000000000E+05,      /* J =  8 */
(PID.TID 0000.0001)                 8.500000000000000E+05,      /* J =  9 */
(PID.TID 0000.0001)                 9.500000000000000E+05,      /* J = 10 */
(PID.TID 0000.0001)                 1.050000000000000E+06,      /* J = 11 */
(PID.TID 0000.0001)                 1.150000000000000E+06,      /* J = 12 */
(PID.TID 0000.0001)                 1.250000000000000E+06,      /* J = 13 */
(PID.TID 0000.0001)                 1.350000000000000E+06,      /* J = 14 */
(PID.TID 0000.0001)                 1.450000000000000E+06,      /* J = 15 */
(PID.TID 0000.0001)                 1.550000000000000E+06,      /* J = 16 */
(PID.TID 0000.0001)                 1.650000000000000E+06,      /* J = 17 */
(PID.TID 0000.0001)                 1.750000000000000E+06,      /* J = 18 */
(PID.TID 0000.0001)                 1.850000000000000E+06,      /* J = 19 */
(PID.TID 0000.0001)                 1.950000000000000E+06,      /* J = 20 */
(PID.TID 0000.0001)                 2.050000000000000E+06,      /* J = 21 */
(PID.TID 0000.0001)                 2.150000000000000E+06,      /* J = 22 */
(PID.TID 0000.0001)                 2.250000000000000E+06,      /* J = 23 */
(PID.TID 0000.0001)                 2.350000000000000E+06,      /* J = 24 */
(PID.TID 0000.0001)                 2.450000000000000E+06,      /* J = 25 */
(PID.TID 0000.0001)                 2.550000000000000E+06,      /* J = 26 */
(PID.TID 0000.0001)                 2.650000000000000E+06,      /* J = 27 */
(PID.TID 0000.0001)                 2.750000000000000E+06,      /* J = 28 */
(PID.TID 0000.0001)                 2.850000000000000E+06,      /* J = 29 */
(PID.TID 0000.0001)                 2.950000000000000E+06,      /* J = 30 */
(PID.TID 0000.0001)                 3.050000000000000E+06,      /* J = 31 */
(PID.TID 0000.0001)                 3.150000000000000E+06       /* J = 32 */
(PID.TID 0000.0001)     ;
(PID.TID 0000.0001) rcoord = /* P-point R coordinate (  units of r ) */
(PID.TID 0000.0001)                -1.000000000000000E+01,      /* K =  1 */
(PID.TID 0000.0001)                -3.000000000000000E+01,      /* K =  2 */
(PID.TID 0000.0001)                -5.000000000000000E+01,      /* K =  3 */
(PID.TID 0000.0001)                -7.000000000000000E+01,      /* K =  4 */
(PID.TID 0000.0001)                -9.000000000000000E+01,      /* K =  5 */
(PID.TID 0000.0001)                -1.100000000000000E+02,      /* K =  6 */
(PID.TID 0000.0001)                -1.300000000000000E+02,      /* K =  7 */
(PID.TID 0000.0001)                -1.500000000000000E+02,      /* K =  8 */
(PID.TID 0000.0001)                -1.700000000000000E+02,      /* K =  9 */
(PID.TID 0000.0001)                -1.900000000000000E+02,      /* K = 10 */
(PID.TID 0000.0001)                -2.120000000000000E+02,      /* K = 11 */
(PID.TID 0000.0001)                -2.385000000000000E+02,      /* K = 12 */
(PID.TID 0000.0001)                -2.705000000000000E+02,      /* K = 13 */
(PID.TID 0000.0001)                -3.090000000000000E+02,      /* K = 14 */
(PID.TID 0000.0001)                -3.555000000000000E+02,      /* K = 15 */
(PID.TID 0000.0001)                -4.115000000000000E+02,      /* K = 16 */
(PID.TID 0000.0001)                -4.790000000000000E+02,      /* K = 17 */
(PID.TID 0000.0001)                -5.605000000000000E+02,      /* K = 18 */
(PID.TID 0000.0001)                -6.585000000000000E+02,      /* K = 19 */
(PID.TID 0000.0001)                -7.760000000000000E+02,      /* K = 20 */
(PID.TID 0000.0001)                -9.175000000000000E+02,      /* K = 21 */
(PID.TID 0000.0001)                -1.088000000000000E+03,      /* K = 22 */
(PID.TID 0000.0001)                -1.293000000000000E+03,      /* K = 23 */
(PID.TID 0000.0001)                -1.540000000000000E+03,      /* K = 24 */
(PID.TID 0000.0001)                -1.837500000000000E+03       /* K = 25 */
(PID.TID 0000.0001)     ;
(PID.TID 0000.0001) rF =   /* W-Interf. R coordinate (  units of r ) */
(PID.TID 0000.0001)                 0.000000000000000E+00,      /* K =  1 */
(PID.TID 0000.0001)                -2.000000000000000E+01,      /* K =  2 */
(PID.TID 0000.0001)                -4.000000000000000E+01,      /* K =  3 */
(PID.TID 0000.0001)                -6.000000000000000E+01,      /* K =  4 */
(PID.TID 0000.0001)                -8.000000000000000E+01,      /* K =  5 */
(PID.TID 0000.0001)                -1.000000000000000E+02,      /* K =  6 */
(PID.TID 0000.0001)                -1.200000000000000E+02,      /* K =  7 */
(PID.TID 0000.0001)                -1.400000000000000E+02,      /* K =  8 */
(PID.TID 0000.0001)                -1.600000000000000E+02,      /* K =  9 */
(PID.TID 0000.0001)                -1.800000000000000E+02,      /* K = 10 */
(PID.TID 0000.0001)                -2.000000000000000E+02,      /* K = 11 */
(PID.TID 0000.0001)                -2.240000000000000E+02,      /* K = 12 */
(PID.TID 0000.0001)                -2.530000000000000E+02,      /* K = 13 */
(PID.TID 0000.0001)                -2.880000000000000E+02,      /* K = 14 */
(PID.TID 0000.0001)                -3.300000000000000E+02,      /* K = 15 */
(PID.TID 0000.0001)                -3.810000000000000E+02,      /* K = 16 */
(PID.TID 0000.0001)                -4.420000000000000E+02,      /* K = 17 */
(PID.TID 0000.0001)                -5.160000000000000E+02,      /* K = 18 */
(PID.TID 0000.0001)                -6.050000000000000E+02,      /* K = 19 */
(PID.TID 0000.0001)                -7.120000000000000E+02,      /* K = 20 */
(PID.TID 0000.0001)                -8.400000000000000E+02,      /* K = 21 */
(PID.TID 0000.0001)                -9.950000000000000E+02,      /* K = 22 */
(PID.TID 0000.0001)                -1.181000000000000E+03,      /* K = 23 */
(PID.TID 0000.0001)                -1.405000000000000E+03,      /* K = 24 */
(PID.TID 0000.0001)                -1.675000000000000E+03,      /* K = 25 */
(PID.TID 0000.0001)                -2.000000000000000E+03       /* K = 26 */
(PID.TID 0000.0001)     ;
(PID.TID 0000.0001) deepFacC = /* deep-model grid factor @ cell-Center (-) */
(PID.TID 0000.0001)    25 @  1.000000000000000E+00              /* K =  1: 25 */
(PID.TID 0000.0001)     ;
(PID.TID 0000.0001) deepFacF = /* deep-model grid factor @ W-Interface (-) */
(PID.TID 0000.0001)    26 @  1.000000000000000E+00              /* K =  1: 26 */
(PID.TID 0000.0001)     ;
(PID.TID 0000.0001) rVel2wUnit = /* convert units: rVel -> wSpeed (=1 if z-coord)*/
(PID.TID 0000.0001)    26 @  1.000000000000000E+00              /* K =  1: 26 */
(PID.TID 0000.0001)     ;
(PID.TID 0000.0001) wUnit2rVel = /* convert units: wSpeed -> rVel (=1 if z-coord)*/
(PID.TID 0000.0001)    26 @  1.000000000000000E+00              /* K =  1: 26 */
(PID.TID 0000.0001)     ;
(PID.TID 0000.0001) dBdrRef = /* Vertical grad. of reference buoyancy [(m/s/r)^2] */
(PID.TID 0000.0001)                 0.000000000000000E+00,      /* K =  1 */
(PID.TID 0000.0001)     9 @  9.810000000000001E-05,             /* K =  2: 10 */
(PID.TID 0000.0001)                 8.918181818181819E-05,      /* K = 11 */
(PID.TID 0000.0001)                 7.403773584905661E-05,      /* K = 12 */
(PID.TID 0000.0001)                 6.131250000000001E-05,      /* K = 13 */
(PID.TID 0000.0001)                 5.096103896103897E-05,      /* K = 14 */
(PID.TID 0000.0001)                 4.219354838709678E-05,      /* K = 15 */
(PID.TID 0000.0001)                 3.503571428571429E-05,      /* K = 16 */
(PID.TID 0000.0001)                 2.906666666666667E-05,      /* K = 17 */
(PID.TID 0000.0001)                 2.407361963190185E-05,      /* K = 18 */
(PID.TID 0000.0001)                 2.002040816326531E-05,      /* K = 19 */
(PID.TID 0000.0001)                 1.669787234042553E-05,      /* K = 20 */
(PID.TID 0000.0001)                 1.386572438162544E-05,      /* K = 21 */
(PID.TID 0000.0001)                 2.301466275659825E-05,      /* K = 22 */
(PID.TID 0000.0001)                -9.570731707317075E-06,      /* K = 23 */
(PID.TID 0000.0001)                 1.588663967611337E-05,      /* K = 24 */
(PID.TID 0000.0001)                 6.594957983193279E-06       /* K = 25 */
(PID.TID 0000.0001)     ;
(PID.TID 0000.0001) rotateGrid = /* use rotated grid ( True/False ) */
(PID.TID 0000.0001)                   F
(PID.TID 0000.0001)     ;
(PID.TID 0000.0001) phiEuler = /* Euler angle, rotation about original z-coordinate [rad] */
(PID.TID 0000.0001)                 0.000000000000000E+00
(PID.TID 0000.0001)     ;
(PID.TID 0000.0001) thetaEuler = /* Euler angle, rotation about new x-coordinate [rad] */
(PID.TID 0000.0001)                 0.000000000000000E+00
(PID.TID 0000.0001)     ;
(PID.TID 0000.0001) psiEuler = /* Euler angle, rotation about new z-coordinate [rad] */
(PID.TID 0000.0001)                 0.000000000000000E+00
(PID.TID 0000.0001)     ;
(PID.TID 0000.0001) dxF =  /* dxF(:,1,:,1) ( units: m ) */
(PID.TID 0000.0001)                 1.000000000000000E+05       /* I =  1 */
(PID.TID 0000.0001)     ;
(PID.TID 0000.0001) dxF =  /* dxF(1,:,1,:) ( units: m ) */
(PID.TID 0000.0001)    32 @  1.000000000000000E+05              /* J =  1: 32 */
(PID.TID 0000.0001)     ;
(PID.TID 0000.0001) dyF =  /* dyF(:,1,:,1) ( units: m ) */
(PID.TID 0000.0001)                 1.000000000000000E+05       /* I =  1 */
(PID.TID 0000.0001)     ;
(PID.TID 0000.0001) dyF =  /* dyF(1,:,1,:) ( units: m ) */
(PID.TID 0000.0001)    32 @  1.000000000000000E+05              /* J =  1: 32 */
(PID.TID 0000.0001)     ;
(PID.TID 0000.0001) dxG =  /* dxG(:,1,:,1) ( units: m ) */
(PID.TID 0000.0001)                 1.000000000000000E+05       /* I =  1 */
(PID.TID 0000.0001)     ;
(PID.TID 0000.0001) dxG =  /* dxG(1,:,1,:) ( units: m ) */
(PID.TID 0000.0001)    32 @  1.000000000000000E+05              /* J =  1: 32 */
(PID.TID 0000.0001)     ;
(PID.TID 0000.0001) dyG =  /* dyG(:,1,:,1) ( units: m ) */
(PID.TID 0000.0001)                 1.000000000000000E+05       /* I =  1 */
(PID.TID 0000.0001)     ;
(PID.TID 0000.0001) dyG =  /* dyG(1,:,1,:) ( units: m ) */
(PID.TID 0000.0001)    32 @  1.000000000000000E+05              /* J =  1: 32 */
(PID.TID 0000.0001)     ;
(PID.TID 0000.0001) dxC =  /* dxC(:,1,:,1) ( units: m ) */
(PID.TID 0000.0001)                 1.000000000000000E+05       /* I =  1 */
(PID.TID 0000.0001)     ;
(PID.TID 0000.0001) dxC =  /* dxC(1,:,1,:) ( units: m ) */
(PID.TID 0000.0001)    32 @  1.000000000000000E+05              /* J =  1: 32 */
(PID.TID 0000.0001)     ;
(PID.TID 0000.0001) dyC =  /* dyC(:,1,:,1) ( units: m ) */
(PID.TID 0000.0001)                 1.000000000000000E+05       /* I =  1 */
(PID.TID 0000.0001)     ;
(PID.TID 0000.0001) dyC =  /* dyC(1,:,1,:) ( units: m ) */
(PID.TID 0000.0001)    32 @  1.000000000000000E+05              /* J =  1: 32 */
(PID.TID 0000.0001)     ;
(PID.TID 0000.0001) dxV =  /* dxV(:,1,:,1) ( units: m ) */
(PID.TID 0000.0001)                 1.000000000000000E+05       /* I =  1 */
(PID.TID 0000.0001)     ;
(PID.TID 0000.0001) dxV =  /* dxV(1,:,1,:) ( units: m ) */
(PID.TID 0000.0001)    32 @  1.000000000000000E+05              /* J =  1: 32 */
(PID.TID 0000.0001)     ;
(PID.TID 0000.0001) dyU =  /* dyU(:,1,:,1) ( units: m ) */
(PID.TID 0000.0001)                 1.000000000000000E+05       /* I =  1 */
(PID.TID 0000.0001)     ;
(PID.TID 0000.0001) dyU =  /* dyU(1,:,1,:) ( units: m ) */
(PID.TID 0000.0001)    32 @  1.000000000000000E+05              /* J =  1: 32 */
(PID.TID 0000.0001)     ;
(PID.TID 0000.0001) rA  =  /* rA (:,1,:,1) ( units: m^2 ) */
(PID.TID 0000.0001)                 1.000000000000000E+10       /* I =  1 */
(PID.TID 0000.0001)     ;
(PID.TID 0000.0001) rA  =  /* rA (1,:,1,:) ( units: m^2 ) */
(PID.TID 0000.0001)    32 @  1.000000000000000E+10              /* J =  1: 32 */
(PID.TID 0000.0001)     ;
(PID.TID 0000.0001) rAw =  /* rAw(:,1,:,1) ( units: m^2 ) */
(PID.TID 0000.0001)                 1.000000000000000E+10       /* I =  1 */
(PID.TID 0000.0001)     ;
(PID.TID 0000.0001) rAw =  /* rAw(1,:,1,:) ( units: m^2 ) */
(PID.TID 0000.0001)    32 @  1.000000000000000E+10              /* J =  1: 32 */
(PID.TID 0000.0001)     ;
(PID.TID 0000.0001) rAs =  /* rAs(:,1,:,1) ( units: m^2 ) */
(PID.TID 0000.0001)                 1.000000000000000E+10       /* I =  1 */
(PID.TID 0000.0001)     ;
(PID.TID 0000.0001) rAs =  /* rAs(1,:,1,:) ( units: m^2 ) */
(PID.TID 0000.0001)    32 @  1.000000000000000E+10              /* J =  1: 32 */
(PID.TID 0000.0001)     ;
(PID.TID 0000.0001) globalArea = /* Integrated horizontal Area (m^2) */
(PID.TID 0000.0001)                 3.000000000000000E+11
(PID.TID 0000.0001)     ;
(PID.TID 0000.0001) // =======================================================
(PID.TID 0000.0001) // End of Model config. summary
(PID.TID 0000.0001) // =======================================================
(PID.TID 0000.0001) 
(PID.TID 0000.0001) == Packages configuration : Check & print summary ==
(PID.TID 0000.0001) 
(PID.TID 0000.0001) GMREDI_CHECK: #define GMREDI
(PID.TID 0000.0001) GM_AdvForm =     /* if FALSE => use SkewFlux Form */
(PID.TID 0000.0001)                   T
(PID.TID 0000.0001)     ;
(PID.TID 0000.0001) GM_InMomAsStress = /* if TRUE => apply as Eddy Stress */
(PID.TID 0000.0001)                   F
(PID.TID 0000.0001)     ;
(PID.TID 0000.0001) GM_AdvSeparate = /* Calc Bolus & Euler Adv. separately */
(PID.TID 0000.0001)                   F
(PID.TID 0000.0001)     ;
(PID.TID 0000.0001) GM_ExtraDiag =   /* Tensor Extra Diag (line 1&2) non 0 */
(PID.TID 0000.0001)                   T
(PID.TID 0000.0001)     ;
(PID.TID 0000.0001) GM_isopycK =    /* Background Isopyc. Diffusivity [m^2/s] */
(PID.TID 0000.0001)                 1.000000000000000E+03
(PID.TID 0000.0001)     ;
(PID.TID 0000.0001) GM_skewflx*K =  /* Background GM_SkewFlx Diffusivity [m^2/s] */
(PID.TID 0000.0001)                 0.000000000000000E+00
(PID.TID 0000.0001)     ;
(PID.TID 0000.0001) GM_advec*K =    /* Backg. GM-Advec(=Bolus) Diffusivity [m^2/s]*/
(PID.TID 0000.0001)                 1.000000000000000E+03
(PID.TID 0000.0001)     ;
(PID.TID 0000.0001) GM_Kmin_horiz = /* Minimum Horizontal Diffusivity [m^2/s] */
(PID.TID 0000.0001)                 0.000000000000000E+00
(PID.TID 0000.0001)     ;
(PID.TID 0000.0001) GM_Visbeck_alpha = /* Visbeck alpha coeff. [-] */
(PID.TID 0000.0001)                 0.000000000000000E+00
(PID.TID 0000.0001)     ;
(PID.TID 0000.0001) GM_Small_Number =  /* epsilon used in slope calc */
(PID.TID 0000.0001)                 9.999999999999999E-21
(PID.TID 0000.0001)     ;
(PID.TID 0000.0001) GM_slopeSqCutoff = /* Slope^2 cut-off value */
(PID.TID 0000.0001)                 1.000000000000000E+48
(PID.TID 0000.0001)     ;
(PID.TID 0000.0001) GM_taper_scheme =  /* Type of Tapering/Clipping scheme */
(PID.TID 0000.0001)               'linear                                  '
(PID.TID 0000.0001)     ;
(PID.TID 0000.0001) GM_maxSlope =  /* Maximum Slope (Tapering/Clipping) */
(PID.TID 0000.0001)                 1.000000000000000E-02
(PID.TID 0000.0001)     ;
(PID.TID 0000.0001) GM_facTrL2dz = /* Minimum Trans.Layer Thick. (factor of dz) */
(PID.TID 0000.0001)                 0.000000000000000E+00
(PID.TID 0000.0001)     ;
(PID.TID 0000.0001) GM_facTrL2ML = /* Max.Trans.Layer Thick. (factor of MxL Depth)*/
(PID.TID 0000.0001)                 5.000000000000000E+00
(PID.TID 0000.0001)     ;
(PID.TID 0000.0001) GM_maxTransLay = /* Maximum Transition Layer Thickness [m] */
(PID.TID 0000.0001)                 5.000000000000000E+02
(PID.TID 0000.0001)     ;
(PID.TID 0000.0001) GM_UseBVP = /* if TRUE => use bvp a la Ferrari et al. (2010) */
(PID.TID 0000.0001)                   T
(PID.TID 0000.0001)     ;
(PID.TID 0000.0001) GM_BVP_ModeNumber = /* Vertical mode number for BVP wave speed */
(PID.TID 0000.0001)                       1
(PID.TID 0000.0001)     ;
(PID.TID 0000.0001) GM_BVP_cMin = /* Minimum wave speed for BVP [m/s] */
(PID.TID 0000.0001)                 1.000000000000000E-01
(PID.TID 0000.0001)     ;
(PID.TID 0000.0001) GM_useSubMeso = /* if TRUE => use Sub-Meso param. (B.Fox-Kemper) */
(PID.TID 0000.0001)                   T
(PID.TID 0000.0001)     ;
(PID.TID 0000.0001) subMeso_Ceff = /* efficiency coeff. of Mixed-Layer Eddies [-] */
(PID.TID 0000.0001)                 7.000000000000001E-02
(PID.TID 0000.0001)     ;
(PID.TID 0000.0001) subMeso_invTau = /* inverse of Sub-Meso mixing time-scale [/s] */
(PID.TID 0000.0001)                 2.000000000000000E-06
(PID.TID 0000.0001)     ;
(PID.TID 0000.0001) subMeso_LfMin = /* minimum length-scale "Lf" [m] */
(PID.TID 0000.0001)                 1.000000000000000E+03
(PID.TID 0000.0001)     ;
(PID.TID 0000.0001) subMeso_Lmax = /* maximum grid-scale length [m] */
(PID.TID 0000.0001)                 1.100000000000000E+05
(PID.TID 0000.0001)     ;
(PID.TID 0000.0001) GAD_CHECK: #define ALLOW_GENERIC_ADVDIFF
(PID.TID 0000.0001) // =======================================================
(PID.TID 0000.0001) // CONFIG_CHECK : Normal End
(PID.TID 0000.0001) // =======================================================
(PID.TID 0000.0001) 
(PID.TID 0000.0001)  MDS_READ_FIELD: opening global file: u_ini.bin
(PID.TID 0000.0001)  MDS_READ_FIELD: opening global file: t_ini.bin
(PID.TID 0000.0001)  MDS_READ_FIELD: opening global file: s_ini.bin
(PID.TID 0000.0001) Start initial hydrostatic pressure computation
(PID.TID 0000.0001) Pressure is predetermined for buoyancyRelation OCEANIC
(PID.TID 0000.0001) 
(PID.TID 0000.0001)  write diagnostics summary to file ioUnit:      6
Iter.Nb:         0 ; Time(s):  0.0000000000000E+00
------------------------------------------------------------------------
2D/3D diagnostics: Number of lists:     3
------------------------------------------------------------------------
listId=    1 ; file name: surfDiag
 nFlds, nActive,       freq     &     phase        , nLev               
    8  |    8  |    -86400.000000         0.000000 |   1
 levels:   1
 diag# | name   |   ipt  |  iMate | kLev|   count |   mate.C|           
    23 |ETAN    |      1 |      0 |   1 |       0 |
    25 |DETADT2 |      2 |      0 |   1 |       0 |
    73 |PHIBOT  |      3 |      0 |   1 |       0 |
    75 |MXLDEPTH|      4 |      0 |   1 |       0 |
   203 |GM_BVPcW|      5 |      6 |   1 |       0 |       0 |
   204 |GM_BVPcS|      6 |      5 |   1 |       0 |       0 |
   187 |SubMesLf|      7 |      0 |   1 |       0 |
   189 |SubMpsiY|      8 |      0 |   1 |       0 |
------------------------------------------------------------------------
listId=    2 ; file name: dynDiag
 nFlds, nActive,       freq     &     phase        , nLev               
    7  |    7  |   -864000.000000         0.000000 |  25
 levels:   1   2   3   4   5   6   7   8   9  10  11  12  13  14  15  16  17  18  19  20  21  22  23  24  25
 diag# | name   |   ipt  |  iMate | kLev|   count |   mate.C|           
    30 |UVEL    |      9 |     34 |  25 |       0 |       0 |
    31 |VVEL    |     34 |      9 |  25 |       0 |       0 |
    32 |WVEL    |     59 |      0 |  25 |       0 |
    71 |PHIHYD  |     84 |      0 |  25 |       0 |
    26 |THETA   |    109 |      0 |  25 |       0 |
    33 |THETASQ |    134 |      0 |  25 |       0 |
    36 |UVELSQ  |    159 |      0 |  25 |       0 |
------------------------------------------------------------------------
listId=    3 ; file name: oceDiag
 nFlds, nActive,       freq     &     phase        , nLev               
    8  |    8  |    -86400.000000         0.000000 |  25
 levels:   1   2   3   4   5   6   7   8   9  10  11  12  13  14  15  16  17  18  19  20  21  22  23  24  25
 diag# | name   |   ipt  |  iMate | kLev|   count |   mate.C|           
    76 |DRHODR  |    184 |      0 |  25 |       0 |
    64 |RHOAnoma|    209 |      0 |  25 |       0 |
   195 |GM_Kwy  |    234 |      0 |  25 |       0 |
   196 |GM_Kwz  |    259 |      0 |  25 |       0 |
   191 |GM_Kvy  |    284 |      0 |  25 |       0 |
    26 |THETA   |    309 |      0 |  25 |       0 |
   198 |GM_PsiY |    334 |      0 |  25 |       0 |
   193 |GM_Kvz  |    359 |      0 |  25 |       0 |
------------------------------------------------------------------------
Global & Regional Statistics diagnostics: Number of lists:     0
------------------------------------------------------------------------
(PID.TID 0000.0001) // =======================================================
(PID.TID 0000.0001) // Model current state
(PID.TID 0000.0001) // =======================================================
(PID.TID 0000.0001) 
(PID.TID 0000.0001) // =======================================================
(PID.TID 0000.0001) // Begin MONITOR dynamic field statistics
(PID.TID 0000.0001) // =======================================================
(PID.TID 0000.0001) %MON time_tsnumber                =                     0
(PID.TID 0000.0001) %MON time_secondsf                =   0.0000000000000E+00
(PID.TID 0000.0001) %MON dynstat_eta_max              =   0.0000000000000E+00
(PID.TID 0000.0001) %MON dynstat_eta_min              =   0.0000000000000E+00
(PID.TID 0000.0001) %MON dynstat_eta_mean             =   0.0000000000000E+00
(PID.TID 0000.0001) %MON dynstat_eta_sd               =   0.0000000000000E+00
(PID.TID 0000.0001) %MON dynstat_eta_del2             =   0.0000000000000E+00
(PID.TID 0000.0001) %MON dynstat_uvel_max             =   1.2708890949034E-01
(PID.TID 0000.0001) %MON dynstat_uvel_min             =  -1.2708890949034E-01
(PID.TID 0000.0001) %MON dynstat_uvel_mean            =  -5.4975756068516E-06
(PID.TID 0000.0001) %MON dynstat_uvel_sd              =   2.0322315569060E-02
(PID.TID 0000.0001) %MON dynstat_uvel_del2            =   5.0509287841793E-04
(PID.TID 0000.0001) %MON dynstat_vvel_max             =   0.0000000000000E+00
(PID.TID 0000.0001) %MON dynstat_vvel_min             =   0.0000000000000E+00
(PID.TID 0000.0001) %MON dynstat_vvel_mean            =   0.0000000000000E+00
(PID.TID 0000.0001) %MON dynstat_vvel_sd              =   0.0000000000000E+00
(PID.TID 0000.0001) %MON dynstat_vvel_del2            =   0.0000000000000E+00
(PID.TID 0000.0001) %MON dynstat_wvel_max             =  -0.0000000000000E+00
(PID.TID 0000.0001) %MON dynstat_wvel_min             =  -0.0000000000000E+00
(PID.TID 0000.0001) %MON dynstat_wvel_mean            =   0.0000000000000E+00
(PID.TID 0000.0001) %MON dynstat_wvel_sd              =   0.0000000000000E+00
(PID.TID 0000.0001) %MON dynstat_wvel_del2            =   0.0000000000000E+00
(PID.TID 0000.0001) %MON dynstat_theta_max            =   1.3324548570971E+01
(PID.TID 0000.0001) %MON dynstat_theta_min            =   6.2538226645252E+00
(PID.TID 0000.0001) %MON dynstat_theta_mean           =   8.4642401720337E+00
(PID.TID 0000.0001) %MON dynstat_theta_sd             =   1.4059935903981E+00
(PID.TID 0000.0001) %MON dynstat_theta_del2           =   7.4185613820284E-03
(PID.TID 0000.0001) %MON dynstat_salt_max             =   1.1996530790116E+01
(PID.TID 0000.0001) %MON dynstat_salt_min             =   1.0464440295541E+01
(PID.TID 0000.0001) %MON dynstat_salt_mean            =   1.1308841661162E+01
(PID.TID 0000.0001) %MON dynstat_salt_sd              =   5.1722696788685E-01
(PID.TID 0000.0001) %MON dynstat_salt_del2            =   5.6431444333042E-04
(PID.TID 0000.0001) %MON advcfl_uvel_max              =   4.5752007416521E-03
(PID.TID 0000.0001) %MON advcfl_vvel_max              =   0.0000000000000E+00
(PID.TID 0000.0001) %MON advcfl_wvel_max              =   0.0000000000000E+00
(PID.TID 0000.0001) %MON advcfl_W_hf_max              =   0.0000000000000E+00
(PID.TID 0000.0001) %MON pe_b_mean                    =   0.0000000000000E+00
(PID.TID 0000.0001) %MON ke_max                       =   8.0757954577213E-03
(PID.TID 0000.0001) %MON ke_mean                      =   2.0649827015589E-04
(PID.TID 0000.0001) %MON ke_vol                       =   5.0981346415358E+14
(PID.TID 0000.0001) // =======================================================
(PID.TID 0000.0001) // End MONITOR dynamic field statistics
(PID.TID 0000.0001) // =======================================================
(PID.TID 0000.0001) SOLVE_FOR_PRESSURE: putPmEinXvector =    F
 cg2d: Sum(rhs),rhsMax =  -2.42542802248585E-16  7.84478485396824E-01
(PID.TID 0000.0001)                    cg2d_init_res =    1.84632981170703E+00
(PID.TID 0000.0001)                       cg2d_iters =    28
(PID.TID 0000.0001)                         cg2d_res =    4.10145676628236E-15
(PID.TID 0000.0001) // =======================================================
(PID.TID 0000.0001) // Begin MONITOR dynamic field statistics
(PID.TID 0000.0001) // =======================================================
(PID.TID 0000.0001) %MON time_tsnumber                =                     1
(PID.TID 0000.0001) %MON time_secondsf                =   3.6000000000000E+03
(PID.TID 0000.0001) %MON dynstat_eta_max              =   2.6931460151444E-01
(PID.TID 0000.0001) %MON dynstat_eta_min              =  -7.6771771361424E-02
(PID.TID 0000.0001) %MON dynstat_eta_mean             =   2.7592976888021E-16
(PID.TID 0000.0001) %MON dynstat_eta_sd               =   9.6792993958634E-02
(PID.TID 0000.0001) %MON dynstat_eta_del2             =   5.2210367225506E-03
(PID.TID 0000.0001) %MON dynstat_uvel_max             =   1.2708190064387E-01
(PID.TID 0000.0001) %MON dynstat_uvel_min             =  -1.2708190064387E-01
(PID.TID 0000.0001) %MON dynstat_uvel_mean            =  -5.6067134589115E-06
(PID.TID 0000.0001) %MON dynstat_uvel_sd              =   2.0322249914812E-02
(PID.TID 0000.0001) %MON dynstat_uvel_del2            =   5.0509041366132E-04
(PID.TID 0000.0001) %MON dynstat_vvel_max             =   9.2876133483272E-03
(PID.TID 0000.0001) %MON dynstat_vvel_min             =  -1.0028149377893E-02
(PID.TID 0000.0001) %MON dynstat_vvel_mean            =   4.7877125289136E-04
(PID.TID 0000.0001) %MON dynstat_vvel_sd              =   5.0967848889294E-03
(PID.TID 0000.0001) %MON dynstat_vvel_del2            =   3.6844455694336E-05
(PID.TID 0000.0001) %MON dynstat_wvel_max             =   7.4809611531787E-05
(PID.TID 0000.0001) %MON dynstat_wvel_min             =  -2.1325492044839E-05
(PID.TID 0000.0001) %MON dynstat_wvel_mean            =   3.0762417435869E-23
(PID.TID 0000.0001) %MON dynstat_wvel_sd              =   1.7338367110351E-05
(PID.TID 0000.0001) %MON dynstat_wvel_del2            =   3.0975995090818E-07
(PID.TID 0000.0001) %MON dynstat_theta_max            =   1.3325043260481E+01
(PID.TID 0000.0001) %MON dynstat_theta_min            =   6.2538231167499E+00
(PID.TID 0000.0001) %MON dynstat_theta_mean           =   8.4642401720337E+00
(PID.TID 0000.0001) %MON dynstat_theta_sd             =   1.4059933615263E+00
(PID.TID 0000.0001) %MON dynstat_theta_del2           =   7.4178854125315E-03
(PID.TID 0000.0001) %MON dynstat_salt_max             =   1.1996554616262E+01
(PID.TID 0000.0001) %MON dynstat_salt_min             =   1.0464446045175E+01
(PID.TID 0000.0001) %MON dynstat_salt_mean            =   1.1308841661162E+01
(PID.TID 0000.0001) %MON dynstat_salt_sd              =   5.1721897596559E-01
(PID.TID 0000.0001) %MON dynstat_salt_del2            =   5.6436130951725E-04
(PID.TID 0000.0001) %MON advcfl_uvel_max              =   4.5749484231792E-03
(PID.TID 0000.0001) %MON advcfl_vvel_max              =   3.6101337760413E-04
(PID.TID 0000.0001) %MON advcfl_wvel_max              =   2.6931460151443E-02
(PID.TID 0000.0001) %MON advcfl_W_hf_max              =   1.3422655951557E-02
(PID.TID 0000.0001) %MON pe_b_mean                    =   2.7041875712792E-05
(PID.TID 0000.0001) %MON ke_max                       =   8.0898330519274E-03
(PID.TID 0000.0001) %MON ke_mean                      =   2.1908618334722E-04
(PID.TID 0000.0001) %MON ke_vol                       =   5.0981346415358E+14
(PID.TID 0000.0001) // =======================================================
(PID.TID 0000.0001) // End MONITOR dynamic field statistics
(PID.TID 0000.0001) // =======================================================
 Computing Diagnostic #     23  ETAN         Counter:       1   Parms: SM      M1      
 Computing Diagnostic #     25  DETADT2      Counter:       1   Parms: SM      M1      
 Computing Diagnostic #     73  PHIBOT       Counter:       1   Parms: SM      M1      
 Computing Diagnostic #     75  MXLDEPTH     Counter:       1   Parms: SM      M1      
 Computing Diagnostic #    203  GM_BVPcW     Counter:       1   Parms: SU P    M1      
 Computing Diagnostic #    204  GM_BVPcS     Counter:       1   Parms: SV P    M1      
 Computing Diagnostic #    187  SubMesLf     Counter:       1   Parms: SM P    M1      
 Computing Diagnostic #    189  SubMpsiY     Counter:       1   Parms: VV      M1      
           Vector  Mate for  SubMpsiY     Diagnostic #    188  SubMpsiX not enabled
 Computing Diagnostic #     30  UVEL         Counter:       1   Parms: UUR     MR      
           Vector  Mate for  UVEL         Diagnostic #     31  VVEL     exists 
 Computing Diagnostic #     31  VVEL         Counter:       1   Parms: VVR     MR      
           Vector  Mate for  VVEL         Diagnostic #     30  UVEL     exists 
 Computing Diagnostic #     32  WVEL         Counter:       1   Parms: WM      LR      
 Computing Diagnostic #     71  PHIHYD       Counter:       1   Parms: SMR     MR      
 Computing Diagnostic #     26  THETA        Counter:       1   Parms: SMR     MR      
 Computing Diagnostic #     33  THETASQ      Counter:       1   Parms: SMRP    MR      
 Computing Diagnostic #     36  UVELSQ       Counter:       1   Parms: UURP    MR      
           Vector  Mate for  UVELSQ       Diagnostic #     37  VVELSQ   not enabled
 Computing Diagnostic #     76  DRHODR       Counter:       1   Parms: SM      LR      
 Computing Diagnostic #     64  RHOAnoma     Counter:       1   Parms: SMR     MR      
 Computing Diagnostic #    195  GM_Kwy       Counter:       1   Parms: VM      LR      
           Vector  Mate for  GM_Kwy       Diagnostic #    194  GM_Kwx   not enabled
 Computing Diagnostic #    196  GM_Kwz       Counter:       1   Parms: WM P    LR      
 Computing Diagnostic #    191  GM_Kvy       Counter:       1   Parms: VV P    MR      
           Vector  Mate for  GM_Kvy       Diagnostic #    190  GM_Kux   not enabled
 Computing Diagnostic #     26  THETA        Counter:       1   Parms: SMR     MR      
 Computing Diagnostic #    198  GM_PsiY      Counter:       1   Parms: VV      LR      
           Vector  Mate for  GM_PsiY      Diagnostic #    197  GM_PsiX  not enabled
 Computing Diagnostic #    193  GM_Kvz       Counter:       1   Parms: VV      MR      
           Vector  Mate for  GM_Kvz       Diagnostic #    192  GM_Kuz   not enabled
 cg2d: Sum(rhs),rhsMax =  -2.49106291150269E-15  9.91836551001540E-01
(PID.TID 0000.0001)                    cg2d_init_res =    4.11600372226234E-01
(PID.TID 0000.0001)                       cg2d_iters =    28
(PID.TID 0000.0001)                         cg2d_res =    2.62670687298457E-16
(PID.TID 0000.0001) // =======================================================
(PID.TID 0000.0001) // Begin MONITOR dynamic field statistics
(PID.TID 0000.0001) // =======================================================
(PID.TID 0000.0001) %MON time_tsnumber                =                     2
(PID.TID 0000.0001) %MON time_secondsf                =   7.2000000000000E+03
(PID.TID 0000.0001) %MON dynstat_eta_max              =   4.0024108486617E-01
(PID.TID 0000.0001) %MON dynstat_eta_min              =  -9.7666405646473E-02
(PID.TID 0000.0001) %MON dynstat_eta_mean             =   1.7642974853516E-16
(PID.TID 0000.0001) %MON dynstat_eta_sd               =   1.5214466646041E-01
(PID.TID 0000.0001) %MON dynstat_eta_del2             =   6.3121292462564E-03
(PID.TID 0000.0001) %MON dynstat_uvel_max             =   1.2417841485456E-01
(PID.TID 0000.0001) %MON dynstat_uvel_min             =  -1.2452023978655E-01
(PID.TID 0000.0001) %MON dynstat_uvel_mean            =   2.5984572113800E-04
(PID.TID 0000.0001) %MON dynstat_uvel_sd              =   1.9217061404394E-02
(PID.TID 0000.0001) %MON dynstat_uvel_del2            =   5.0654330806929E-04
(PID.TID 0000.0001) %MON dynstat_vvel_max             =   8.4003363768380E-03
(PID.TID 0000.0001) %MON dynstat_vvel_min             =  -9.5133018179838E-03
(PID.TID 0000.0001) %MON dynstat_vvel_mean            =   3.0177104654332E-04
(PID.TID 0000.0001) %MON dynstat_vvel_sd              =   4.6537545361737E-03
(PID.TID 0000.0001) %MON dynstat_vvel_del2            =   6.7845135649907E-05
(PID.TID 0000.0001) %MON dynstat_wvel_max             =   4.3781047661657E-05
(PID.TID 0000.0001) %MON dynstat_wvel_min             =  -1.4648094504741E-05
(PID.TID 0000.0001) %MON dynstat_wvel_mean            =   3.8453021794836E-22
(PID.TID 0000.0001) %MON dynstat_wvel_sd              =   1.2311183308266E-05
(PID.TID 0000.0001) %MON dynstat_wvel_del2            =   2.6599520637961E-07
(PID.TID 0000.0001) %MON dynstat_theta_max            =   1.3325302449142E+01
(PID.TID 0000.0001) %MON dynstat_theta_min            =   6.2538305570751E+00
(PID.TID 0000.0001) %MON dynstat_theta_mean           =   8.4641423703376E+00
(PID.TID 0000.0001) %MON dynstat_theta_sd             =   1.4057879242081E+00
(PID.TID 0000.0001) %MON dynstat_theta_del2           =   7.4133350606528E-03
(PID.TID 0000.0001) %MON dynstat_salt_max             =   1.1996573839041E+01
(PID.TID 0000.0001) %MON dynstat_salt_min             =   1.0464448766464E+01
(PID.TID 0000.0001) %MON dynstat_salt_mean            =   1.1308818038425E+01
(PID.TID 0000.0001) %MON dynstat_salt_sd              =   5.1720192945502E-01
(PID.TID 0000.0001) %MON dynstat_salt_del2            =   5.6440765640379E-04
(PID.TID 0000.0001) %MON advcfl_uvel_max              =   4.4827286323158E-03
(PID.TID 0000.0001) %MON advcfl_vvel_max              =   3.4247886544742E-04
(PID.TID 0000.0001) %MON advcfl_wvel_max              =   1.3268369369414E-02
(PID.TID 0000.0001) %MON advcfl_W_hf_max              =   7.6052276078815E-03
(PID.TID 0000.0001) %MON pe_b_mean                    =   6.6813224261165E-05
(PID.TID 0000.0001) %MON ke_max                       =   7.7622384547387E-03
(PID.TID 0000.0001) %MON ke_mean                      =   1.9512919181197E-04
(PID.TID 0000.0001) %MON ke_vol                       =   5.0981346415358E+14
(PID.TID 0000.0001) // =======================================================
(PID.TID 0000.0001) // End MONITOR dynamic field statistics
(PID.TID 0000.0001) // =======================================================
 cg2d: Sum(rhs),rhsMax =  -2.76167977375508E-15  9.55395371614323E-01
(PID.TID 0000.0001)                    cg2d_init_res =    1.49790400077985E-01
(PID.TID 0000.0001)                       cg2d_iters =    27
(PID.TID 0000.0001)                         cg2d_res =    5.67628655335898E-14
(PID.TID 0000.0001) // =======================================================
(PID.TID 0000.0001) // Begin MONITOR dynamic field statistics
(PID.TID 0000.0001) // =======================================================
(PID.TID 0000.0001) %MON time_tsnumber                =                     3
(PID.TID 0000.0001) %MON time_secondsf                =   1.0800000000000E+04
(PID.TID 0000.0001) %MON dynstat_eta_max              =   4.1112345615925E-01
(PID.TID 0000.0001) %MON dynstat_eta_min              =  -1.1122766970066E-01
(PID.TID 0000.0001) %MON dynstat_eta_mean             =   5.2134195963542E-17
(PID.TID 0000.0001) %MON dynstat_eta_sd               =   1.6156406911565E-01
(PID.TID 0000.0001) %MON dynstat_eta_del2             =   5.9245813473787E-03
(PID.TID 0000.0001) %MON dynstat_uvel_max             =   1.2631291684711E-01
(PID.TID 0000.0001) %MON dynstat_uvel_min             =  -1.2696323531050E-01
(PID.TID 0000.0001) %MON dynstat_uvel_mean            =   3.2777401894848E-04
(PID.TID 0000.0001) %MON dynstat_uvel_sd              =   1.9426832465350E-02
(PID.TID 0000.0001) %MON dynstat_uvel_del2            =   5.2917751476731E-04
(PID.TID 0000.0001) %MON dynstat_vvel_max             =   1.2509693954720E-02
(PID.TID 0000.0001) %MON dynstat_vvel_min             =  -1.3735317576639E-02
(PID.TID 0000.0001) %MON dynstat_vvel_mean            =  -1.8275098405776E-04
(PID.TID 0000.0001) %MON dynstat_vvel_sd              =   2.4652321314273E-03
(PID.TID 0000.0001) %MON dynstat_vvel_del2            =   9.5903354241018E-05
(PID.TID 0000.0001) %MON dynstat_wvel_max             =   2.5508644210310E-05
(PID.TID 0000.0001) %MON dynstat_wvel_min             =  -2.0674881752306E-05
(PID.TID 0000.0001) %MON dynstat_wvel_mean            =  -3.8453021794836E-23
(PID.TID 0000.0001) %MON dynstat_wvel_sd              =   8.2339815085844E-06
(PID.TID 0000.0001) %MON dynstat_wvel_del2            =   3.4631069303857E-07
(PID.TID 0000.0001) %MON dynstat_theta_max            =   1.3325714780431E+01
(PID.TID 0000.0001) %MON dynstat_theta_min            =   6.2538410717008E+00
(PID.TID 0000.0001) %MON dynstat_theta_mean           =   8.4641180473910E+00
(PID.TID 0000.0001) %MON dynstat_theta_sd             =   1.4057438295357E+00
(PID.TID 0000.0001) %MON dynstat_theta_del2           =   7.4117039745927E-03
(PID.TID 0000.0001) %MON dynstat_salt_max             =   1.1996594602068E+01
(PID.TID 0000.0001) %MON dynstat_salt_min             =   1.0464137649054E+01
(PID.TID 0000.0001) %MON dynstat_salt_mean            =   1.1308801671048E+01
(PID.TID 0000.0001) %MON dynstat_salt_sd              =   5.1719412143493E-01
(PID.TID 0000.0001) %MON dynstat_salt_del2            =   5.6452165447356E-04
(PID.TID 0000.0001) %MON advcfl_uvel_max              =   4.5706764711778E-03
(PID.TID 0000.0001) %MON advcfl_vvel_max              =   4.9447143275901E-04
(PID.TID 0000.0001) %MON advcfl_wvel_max              =   3.4895758788041E-03
(PID.TID 0000.0001) %MON advcfl_W_hf_max              =   2.8977744412110E-03
(PID.TID 0000.0001) %MON pe_b_mean                    =   7.5342240474857E-05
(PID.TID 0000.0001) %MON ke_max                       =   8.1134454113230E-03
(PID.TID 0000.0001) %MON ke_mean                      =   1.9169016434764E-04
(PID.TID 0000.0001) %MON ke_vol                       =   5.0981346415358E+14
(PID.TID 0000.0001) // =======================================================
(PID.TID 0000.0001) // End MONITOR dynamic field statistics
(PID.TID 0000.0001) // =======================================================
 cg2d: Sum(rhs),rhsMax =  -3.33066907387547E-16  9.20894515816433E-01
(PID.TID 0000.0001)                    cg2d_init_res =    9.13506288238030E-02
(PID.TID 0000.0001)                       cg2d_iters =    28
(PID.TID 0000.0001)                         cg2d_res =    3.23735220247963E-16
(PID.TID 0000.0001) // =======================================================
(PID.TID 0000.0001) // Begin MONITOR dynamic field statistics
(PID.TID 0000.0001) // =======================================================
(PID.TID 0000.0001) %MON time_tsnumber                =                     4
(PID.TID 0000.0001) %MON time_secondsf                =   1.4400000000000E+04
(PID.TID 0000.0001) %MON dynstat_eta_max              =   3.8572487734220E-01
(PID.TID 0000.0001) %MON dynstat_eta_min              =  -9.9989599285517E-02
(PID.TID 0000.0001) %MON dynstat_eta_mean             =   1.4686584472656E-16
(PID.TID 0000.0001) %MON dynstat_eta_sd               =   1.5003987460222E-01
(PID.TID 0000.0001) %MON dynstat_eta_del2             =   5.7526890431795E-03
(PID.TID 0000.0001) %MON dynstat_uvel_max             =   1.3067117692458E-01
(PID.TID 0000.0001) %MON dynstat_uvel_min             =  -1.3181464814132E-01
(PID.TID 0000.0001) %MON dynstat_uvel_mean            =   1.6323213919648E-04
(PID.TID 0000.0001) %MON dynstat_uvel_sd              =   2.0054786435526E-02
(PID.TID 0000.0001) %MON dynstat_uvel_del2            =   5.5672746595574E-04
(PID.TID 0000.0001) %MON dynstat_vvel_max             =   1.5520052300488E-02
(PID.TID 0000.0001) %MON dynstat_vvel_min             =  -1.7355603241004E-02
(PID.TID 0000.0001) %MON dynstat_vvel_mean            =  -4.1072858345038E-04
(PID.TID 0000.0001) %MON dynstat_vvel_sd              =   2.2221099559300E-03
(PID.TID 0000.0001) %MON dynstat_vvel_del2            =   1.1339589538949E-04
(PID.TID 0000.0001) %MON dynstat_wvel_max             =   2.1967536019686E-05
(PID.TID 0000.0001) %MON dynstat_wvel_min             =  -3.1411394011204E-05
(PID.TID 0000.0001) %MON dynstat_wvel_mean            =   1.2304966974348E-22
(PID.TID 0000.0001) %MON dynstat_wvel_sd              =   9.2466032479611E-06
(PID.TID 0000.0001) %MON dynstat_wvel_del2            =   4.2815783781939E-07
(PID.TID 0000.0001) %MON dynstat_theta_max            =   1.3326152998391E+01
(PID.TID 0000.0001) %MON dynstat_theta_min            =   6.2538428169582E+00
(PID.TID 0000.0001) %MON dynstat_theta_mean           =   8.4641311505136E+00
(PID.TID 0000.0001) %MON dynstat_theta_sd             =   1.4057718330992E+00
(PID.TID 0000.0001) %MON dynstat_theta_del2           =   7.4096670378501E-03
(PID.TID 0000.0001) %MON dynstat_salt_max             =   1.1996614702082E+01
(PID.TID 0000.0001) %MON dynstat_salt_min             =   1.0463921353575E+01
(PID.TID 0000.0001) %MON dynstat_salt_mean            =   1.1308801388179E+01
(PID.TID 0000.0001) %MON dynstat_salt_sd              =   5.1718894159573E-01
(PID.TID 0000.0001) %MON dynstat_salt_del2            =   5.6468606874617E-04
(PID.TID 0000.0001) %MON advcfl_uvel_max              =   4.7453273330874E-03
(PID.TID 0000.0001) %MON advcfl_vvel_max              =   6.2480171667613E-04
(PID.TID 0000.0001) %MON advcfl_wvel_max              =   3.4622380480915E-03
(PID.TID 0000.0001) %MON advcfl_W_hf_max              =   3.6860319590925E-03
(PID.TID 0000.0001) %MON pe_b_mean                    =   6.4977403132752E-05
(PID.TID 0000.0001) %MON ke_max                       =   8.7772285733215E-03
(PID.TID 0000.0001) %MON ke_mean                      =   2.0356363681036E-04
(PID.TID 0000.0001) %MON ke_vol                       =   5.0981346415358E+14
(PID.TID 0000.0001) // =======================================================
(PID.TID 0000.0001) // End MONITOR dynamic field statistics
(PID.TID 0000.0001) // =======================================================
 cg2d: Sum(rhs),rhsMax =  -1.88044024795886E-15  9.03555703676653E-01
(PID.TID 0000.0001)                    cg2d_init_res =    8.17363912132790E-02
(PID.TID 0000.0001)                       cg2d_iters =    28
(PID.TID 0000.0001)                         cg2d_res =    2.31079140765749E-16
(PID.TID 0000.0001) // =======================================================
(PID.TID 0000.0001) // Begin MONITOR dynamic field statistics
(PID.TID 0000.0001) // =======================================================
(PID.TID 0000.0001) %MON time_tsnumber                =                     5
(PID.TID 0000.0001) %MON time_secondsf                =   1.8000000000000E+04
(PID.TID 0000.0001) %MON dynstat_eta_max              =   3.6042233029983E-01
(PID.TID 0000.0001) %MON dynstat_eta_min              =  -7.8086503299669E-02
(PID.TID 0000.0001) %MON dynstat_eta_mean             =   3.9386749267578E-16
(PID.TID 0000.0001) %MON dynstat_eta_sd               =   1.3661225528252E-01
(PID.TID 0000.0001) %MON dynstat_eta_del2             =   5.7473432390733E-03
(PID.TID 0000.0001) %MON dynstat_uvel_max             =   1.3517228574088E-01
(PID.TID 0000.0001) %MON dynstat_uvel_min             =  -1.3696626845654E-01
(PID.TID 0000.0001) %MON dynstat_uvel_mean            =  -2.7369470802740E-05
(PID.TID 0000.0001) %MON dynstat_uvel_sd              =   2.0648318371101E-02
(PID.TID 0000.0001) %MON dynstat_uvel_del2            =   5.8488539375300E-04
(PID.TID 0000.0001) %MON dynstat_vvel_max             =   1.6018748967107E-02
(PID.TID 0000.0001) %MON dynstat_vvel_min             =  -1.7767711967215E-02
(PID.TID 0000.0001) %MON dynstat_vvel_mean            =  -2.7389034492965E-04
(PID.TID 0000.0001) %MON dynstat_vvel_sd              =   2.5251620713049E-03
(PID.TID 0000.0001) %MON dynstat_vvel_del2            =   1.2187535877898E-04
(PID.TID 0000.0001) %MON dynstat_wvel_max             =   2.1213174882548E-05
(PID.TID 0000.0001) %MON dynstat_wvel_min             =  -3.4233411454648E-05
(PID.TID 0000.0001) %MON dynstat_wvel_mean            =   0.0000000000000E+00
(PID.TID 0000.0001) %MON dynstat_wvel_sd              =   9.9533296682663E-06
(PID.TID 0000.0001) %MON dynstat_wvel_del2            =   4.7897294016012E-07
(PID.TID 0000.0001) %MON dynstat_theta_max            =   1.3326607305056E+01
(PID.TID 0000.0001) %MON dynstat_theta_min            =   6.2538382432858E+00
(PID.TID 0000.0001) %MON dynstat_theta_mean           =   8.4641467201868E+00
(PID.TID 0000.0001) %MON dynstat_theta_sd             =   1.4058013539862E+00
(PID.TID 0000.0001) %MON dynstat_theta_del2           =   7.4069976530255E-03
(PID.TID 0000.0001) %MON dynstat_salt_max             =   1.1996635501859E+01
(PID.TID 0000.0001) %MON dynstat_salt_min             =   1.0463518251254E+01
(PID.TID 0000.0001) %MON dynstat_salt_mean            =   1.1308809431999E+01
(PID.TID 0000.0001) %MON dynstat_salt_sd              =   5.1718145963678E-01
(PID.TID 0000.0001) %MON dynstat_salt_del2            =   5.6474424210495E-04
(PID.TID 0000.0001) %MON advcfl_uvel_max              =   4.9307856644353E-03
(PID.TID 0000.0001) %MON advcfl_vvel_max              =   6.3963763081974E-04
(PID.TID 0000.0001) %MON advcfl_wvel_max              =   3.8608500582014E-03
(PID.TID 0000.0001) %MON advcfl_W_hf_max              =   4.0989064680349E-03
(PID.TID 0000.0001) %MON pe_b_mean                    =   5.3867681975209E-05
(PID.TID 0000.0001) %MON ke_max                       =   9.4721861460251E-03
(PID.TID 0000.0001) %MON ke_mean                      =   2.1627610115603E-04
(PID.TID 0000.0001) %MON ke_vol                       =   5.0981346415358E+14
(PID.TID 0000.0001) // =======================================================
(PID.TID 0000.0001) // End MONITOR dynamic field statistics
(PID.TID 0000.0001) // =======================================================
 cg2d: Sum(rhs),rhsMax =  -4.71150896075301E-15  8.95636323684961E-01
(PID.TID 0000.0001)                    cg2d_init_res =    5.02646411398191E-02
(PID.TID 0000.0001)                       cg2d_iters =    28
(PID.TID 0000.0001)                         cg2d_res =    2.35281900996660E-16
(PID.TID 0000.0001) // =======================================================
(PID.TID 0000.0001) // Begin MONITOR dynamic field statistics
(PID.TID 0000.0001) // =======================================================
(PID.TID 0000.0001) %MON time_tsnumber                =                     6
(PID.TID 0000.0001) %MON time_secondsf                =   2.1600000000000E+04
(PID.TID 0000.0001) %MON dynstat_eta_max              =   3.4767466706768E-01
(PID.TID 0000.0001) %MON dynstat_eta_min              =  -8.0536711527532E-02
(PID.TID 0000.0001) %MON dynstat_eta_mean             =   2.7974446614583E-16
(PID.TID 0000.0001) %MON dynstat_eta_sd               =   1.2997163262118E-01
(PID.TID 0000.0001) %MON dynstat_eta_del2             =   5.7551685273348E-03
(PID.TID 0000.0001) %MON dynstat_uvel_max             =   1.3922269746144E-01
(PID.TID 0000.0001) %MON dynstat_uvel_min             =  -1.4149644378234E-01
(PID.TID 0000.0001) %MON dynstat_uvel_mean            =  -9.4406952953174E-05
(PID.TID 0000.0001) %MON dynstat_uvel_sd              =   2.1166710705285E-02
(PID.TID 0000.0001) %MON dynstat_uvel_del2            =   6.1215307173027E-04
(PID.TID 0000.0001) %MON dynstat_vvel_max             =   1.4764594268162E-02
(PID.TID 0000.0001) %MON dynstat_vvel_min             =  -1.5752590026070E-02
(PID.TID 0000.0001) %MON dynstat_vvel_mean            =   1.2703896668218E-05
(PID.TID 0000.0001) %MON dynstat_vvel_sd              =   2.0699523911734E-03
(PID.TID 0000.0001) %MON dynstat_vvel_del2            =   1.2155979536243E-04
(PID.TID 0000.0001) %MON dynstat_wvel_max             =   2.0358100333563E-05
(PID.TID 0000.0001) %MON dynstat_wvel_min             =  -3.1731684838112E-05
(PID.TID 0000.0001) %MON dynstat_wvel_mean            =   5.3834230512770E-23
(PID.TID 0000.0001) %MON dynstat_wvel_sd              =   9.0700840466724E-06
(PID.TID 0000.0001) %MON dynstat_wvel_del2            =   5.0191915684606E-07
(PID.TID 0000.0001) %MON dynstat_theta_max            =   1.3327009387411E+01
(PID.TID 0000.0001) %MON dynstat_theta_min            =   6.2538338195699E+00
(PID.TID 0000.0001) %MON dynstat_theta_mean           =   8.4641560711275E+00
(PID.TID 0000.0001) %MON dynstat_theta_sd             =   1.4058184448849E+00
(PID.TID 0000.0001) %MON dynstat_theta_del2           =   7.4044034940150E-03
(PID.TID 0000.0001) %MON dynstat_salt_max             =   1.1996654112028E+01
(PID.TID 0000.0001) %MON dynstat_salt_min             =   1.0463600520889E+01
(PID.TID 0000.0001) %MON dynstat_salt_mean            =   1.1308816345513E+01
(PID.TID 0000.0001) %MON dynstat_salt_sd              =   5.1717270340917E-01
(PID.TID 0000.0001) %MON dynstat_salt_del2            =   5.6484390385631E-04
(PID.TID 0000.0001) %MON advcfl_uvel_max              =   5.0938719761643E-03
(PID.TID 0000.0001) %MON advcfl_vvel_max              =   5.6709324093850E-04
(PID.TID 0000.0001) %MON advcfl_wvel_max              =   3.3729378808152E-03
(PID.TID 0000.0001) %MON advcfl_W_hf_max              =   3.6111564284609E-03
(PID.TID 0000.0001) %MON pe_b_mean                    =   4.8758025937849E-05
(PID.TID 0000.0001) %MON ke_max                       =   1.0079741934511E-02
(PID.TID 0000.0001) %MON ke_mean                      =   2.2607767287305E-04
(PID.TID 0000.0001) %MON ke_vol                       =   5.0981346415358E+14
(PID.TID 0000.0001) // =======================================================
(PID.TID 0000.0001) // End MONITOR dynamic field statistics
(PID.TID 0000.0001) // =======================================================
 cg2d: Sum(rhs),rhsMax =  -3.96557786608298E-15  8.95679390818551E-01
(PID.TID 0000.0001)                    cg2d_init_res =    8.21809645069434E-03
(PID.TID 0000.0001)                       cg2d_iters =    28
(PID.TID 0000.0001)                         cg2d_res =    1.73504211696893E-16
(PID.TID 0000.0001) // =======================================================
(PID.TID 0000.0001) // Begin MONITOR dynamic field statistics
(PID.TID 0000.0001) // =======================================================
(PID.TID 0000.0001) %MON time_tsnumber                =                     7
(PID.TID 0000.0001) %MON time_secondsf                =   2.5200000000000E+04
(PID.TID 0000.0001) %MON dynstat_eta_max              =   3.4738778049468E-01
(PID.TID 0000.0001) %MON dynstat_eta_min              =  -8.0832290776472E-02
(PID.TID 0000.0001) %MON dynstat_eta_mean             =   1.2016296386719E-16
(PID.TID 0000.0001) %MON dynstat_eta_sd               =   1.2984099266115E-01
(PID.TID 0000.0001) %MON dynstat_eta_del2             =   5.7561701063421E-03
(PID.TID 0000.0001) %MON dynstat_uvel_max             =   1.4248416621326E-01
(PID.TID 0000.0001) %MON dynstat_uvel_min             =  -1.4485229311958E-01
(PID.TID 0000.0001) %MON dynstat_uvel_mean            =  -3.0374084236173E-05
(PID.TID 0000.0001) %MON dynstat_uvel_sd              =   2.1551970118276E-02
(PID.TID 0000.0001) %MON dynstat_uvel_del2            =   6.3588722393939E-04
(PID.TID 0000.0001) %MON dynstat_vvel_max             =   1.2083432146169E-02
(PID.TID 0000.0001) %MON dynstat_vvel_min             =  -1.2156102856136E-02
(PID.TID 0000.0001) %MON dynstat_vvel_mean            =   2.2692749333192E-04
(PID.TID 0000.0001) %MON dynstat_vvel_sd              =   1.4758809358155E-03
(PID.TID 0000.0001) %MON dynstat_vvel_del2            =   1.1418785197306E-04
(PID.TID 0000.0001) %MON dynstat_wvel_max             =   2.1329046074851E-05
(PID.TID 0000.0001) %MON dynstat_wvel_min             =  -2.6768146752194E-05
(PID.TID 0000.0001) %MON dynstat_wvel_mean            =  -3.0762417435869E-23
(PID.TID 0000.0001) %MON dynstat_wvel_sd              =   7.5779544773003E-06
(PID.TID 0000.0001) %MON dynstat_wvel_del2            =   5.0191720986181E-07
(PID.TID 0000.0001) %MON dynstat_theta_max            =   1.3327363721740E+01
(PID.TID 0000.0001) %MON dynstat_theta_min            =   6.2538334606613E+00
(PID.TID 0000.0001) %MON dynstat_theta_mean           =   8.4641582912782E+00
(PID.TID 0000.0001) %MON dynstat_theta_sd             =   1.4058222469179E+00
(PID.TID 0000.0001) %MON dynstat_theta_del2           =   7.4021853573020E-03
(PID.TID 0000.0001) %MON dynstat_salt_max             =   1.1996670756700E+01
(PID.TID 0000.0001) %MON dynstat_salt_min             =   1.0463558068929E+01
(PID.TID 0000.0001) %MON dynstat_salt_mean            =   1.1308818304120E+01
(PID.TID 0000.0001) %MON dynstat_salt_sd              =   5.1716430081713E-01
(PID.TID 0000.0001) %MON dynstat_salt_del2            =   5.6488906785176E-04
(PID.TID 0000.0001) %MON advcfl_uvel_max              =   5.2146825523050E-03
(PID.TID 0000.0001) %MON advcfl_vvel_max              =   4.3761970282090E-04
(PID.TID 0000.0001) %MON advcfl_wvel_max              =   2.6352240307886E-03
(PID.TID 0000.0001) %MON advcfl_W_hf_max              =   2.8545342194975E-03
(PID.TID 0000.0001) %MON pe_b_mean                    =   4.8660057709226E-05
(PID.TID 0000.0001) %MON ke_max                       =   1.0529680185665E-02
(PID.TID 0000.0001) %MON ke_mean                      =   2.3331529932917E-04
(PID.TID 0000.0001) %MON ke_vol                       =   5.0981346415358E+14
(PID.TID 0000.0001) // =======================================================
(PID.TID 0000.0001) // End MONITOR dynamic field statistics
(PID.TID 0000.0001) // =======================================================
 cg2d: Sum(rhs),rhsMax =  -1.51961776495568E-15  9.00117318031000E-01
(PID.TID 0000.0001)                    cg2d_init_res =    2.22110024797256E-02
(PID.TID 0000.0001)                       cg2d_iters =    28
(PID.TID 0000.0001)                         cg2d_res =    3.57870658070204E-16
(PID.TID 0000.0001) // =======================================================
(PID.TID 0000.0001) // Begin MONITOR dynamic field statistics
(PID.TID 0000.0001) // =======================================================
(PID.TID 0000.0001) %MON time_tsnumber                =                     8
(PID.TID 0000.0001) %MON time_secondsf                =   2.8800000000000E+04
(PID.TID 0000.0001) %MON dynstat_eta_max              =   3.5338735399848E-01
(PID.TID 0000.0001) %MON dynstat_eta_min              =  -8.1070930544398E-02
(PID.TID 0000.0001) %MON dynstat_eta_mean             =   6.1670939127604E-17
(PID.TID 0000.0001) %MON dynstat_eta_sd               =   1.3291875827339E-01
(PID.TID 0000.0001) %MON dynstat_eta_del2             =   5.7568012189168E-03
(PID.TID 0000.0001) %MON dynstat_uvel_max             =   1.4466892811641E-01
(PID.TID 0000.0001) %MON dynstat_uvel_min             =  -1.4680686265555E-01
(PID.TID 0000.0001) %MON dynstat_uvel_mean            =   9.3297337392590E-05
(PID.TID 0000.0001) %MON dynstat_uvel_sd              =   2.1763521703802E-02
(PID.TID 0000.0001) %MON dynstat_uvel_del2            =   6.5356046076639E-04
(PID.TID 0000.0001) %MON dynstat_vvel_max             =   8.3284938697386E-03
(PID.TID 0000.0001) %MON dynstat_vvel_min             =  -7.8208902260599E-03
(PID.TID 0000.0001) %MON dynstat_vvel_mean            =   2.8044906659442E-04
(PID.TID 0000.0001) %MON dynstat_vvel_sd              =   1.0390389356669E-03
(PID.TID 0000.0001) %MON dynstat_vvel_del2            =   1.0315456566996E-04
(PID.TID 0000.0001) %MON dynstat_wvel_max             =   1.9960195492204E-05
(PID.TID 0000.0001) %MON dynstat_wvel_min             =  -2.0962199998878E-05
(PID.TID 0000.0001) %MON dynstat_wvel_mean            =  -1.0766846102554E-22
(PID.TID 0000.0001) %MON dynstat_wvel_sd              =   5.9729837678473E-06
(PID.TID 0000.0001) %MON dynstat_wvel_del2            =   4.8524249823248E-07
(PID.TID 0000.0001) %MON dynstat_theta_max            =   1.3327681001670E+01
(PID.TID 0000.0001) %MON dynstat_theta_min            =   6.2538360841044E+00
(PID.TID 0000.0001) %MON dynstat_theta_mean           =   8.4641557150379E+00
(PID.TID 0000.0001) %MON dynstat_theta_sd             =   1.4058170678186E+00
(PID.TID 0000.0001) %MON dynstat_theta_del2           =   7.4004845431758E-03
(PID.TID 0000.0001) %MON dynstat_salt_max             =   1.1996685779479E+01
(PID.TID 0000.0001) %MON dynstat_salt_min             =   1.0463583935584E+01
(PID.TID 0000.0001) %MON dynstat_salt_mean            =   1.1308816651165E+01
(PID.TID 0000.0001) %MON dynstat_salt_sd              =   5.1715634743138E-01
(PID.TID 0000.0001) %MON dynstat_salt_del2            =   5.6488092846942E-04
(PID.TID 0000.0001) %MON advcfl_uvel_max              =   5.2850470555997E-03
(PID.TID 0000.0001) %MON advcfl_vvel_max              =   2.9982577931059E-04
(PID.TID 0000.0001) %MON advcfl_wvel_max              =   2.1119248475788E-03
(PID.TID 0000.0001) %MON advcfl_W_hf_max              =   2.2656140583796E-03
(PID.TID 0000.0001) %MON pe_b_mean                    =   5.0994286115995E-05
(PID.TID 0000.0001) %MON ke_max                       =   1.0791427275455E-02
(PID.TID 0000.0001) %MON ke_mean                      =   2.3738620128640E-04
(PID.TID 0000.0001) %MON ke_vol                       =   5.0981346415358E+14
(PID.TID 0000.0001) // =======================================================
(PID.TID 0000.0001) // End MONITOR dynamic field statistics
(PID.TID 0000.0001) // =======================================================
 cg2d: Sum(rhs),rhsMax =  -6.07153216591882E-16  9.04411076863074E-01
(PID.TID 0000.0001)                    cg2d_init_res =    2.00050105645392E-02
(PID.TID 0000.0001)                       cg2d_iters =    28
(PID.TID 0000.0001)                         cg2d_res =    4.02754771687270E-16
(PID.TID 0000.0001) // =======================================================
(PID.TID 0000.0001) // Begin MONITOR dynamic field statistics
(PID.TID 0000.0001) // =======================================================
(PID.TID 0000.0001) %MON time_tsnumber                =                     9
(PID.TID 0000.0001) %MON time_secondsf                =   3.2400000000000E+04
(PID.TID 0000.0001) %MON dynstat_eta_max              =   3.5911269233854E-01
(PID.TID 0000.0001) %MON dynstat_eta_min              =  -8.2880576701808E-02
(PID.TID 0000.0001) %MON dynstat_eta_mean             =   1.7865498860677E-16
(PID.TID 0000.0001) %MON dynstat_eta_sd               =   1.3581896115080E-01
(PID.TID 0000.0001) %MON dynstat_eta_del2             =   5.7583870839537E-03
(PID.TID 0000.0001) %MON dynstat_uvel_max             =   1.4560767468976E-01
(PID.TID 0000.0001) %MON dynstat_uvel_min             =  -1.4740564372378E-01
(PID.TID 0000.0001) %MON dynstat_uvel_mean            =   2.0217221421263E-04
(PID.TID 0000.0001) %MON dynstat_uvel_sd              =   2.1800530369463E-02
(PID.TID 0000.0001) %MON dynstat_uvel_del2            =   6.6346896318095E-04
(PID.TID 0000.0001) %MON dynstat_vvel_max             =   4.2468942688722E-03
(PID.TID 0000.0001) %MON dynstat_vvel_min             =  -3.4410941348954E-03
(PID.TID 0000.0001) %MON dynstat_vvel_mean            =   1.9986300288094E-04
(PID.TID 0000.0001) %MON dynstat_vvel_sd              =   7.2037564317628E-04
(PID.TID 0000.0001) %MON dynstat_vvel_del2            =   9.3026166229493E-05
(PID.TID 0000.0001) %MON dynstat_wvel_max             =   1.6512864817275E-05
(PID.TID 0000.0001) %MON dynstat_wvel_min             =  -1.4863610907522E-05
(PID.TID 0000.0001) %MON dynstat_wvel_mean            =   1.2304966974348E-22
(PID.TID 0000.0001) %MON dynstat_wvel_sd              =   4.6774626307728E-06
(PID.TID 0000.0001) %MON dynstat_wvel_del2            =   4.5986945949355E-07
(PID.TID 0000.0001) %MON dynstat_theta_max            =   1.3327967503916E+01
(PID.TID 0000.0001) %MON dynstat_theta_min            =   6.2538389683772E+00
(PID.TID 0000.0001) %MON dynstat_theta_mean           =   8.4641521737040E+00
(PID.TID 0000.0001) %MON dynstat_theta_sd             =   1.4058100471163E+00
(PID.TID 0000.0001) %MON dynstat_theta_del2           =   7.3993941383424E-03
(PID.TID 0000.0001) %MON dynstat_salt_max             =   1.1996699281135E+01
(PID.TID 0000.0001) %MON dynstat_salt_min             =   1.0463691574947E+01
(PID.TID 0000.0001) %MON dynstat_salt_mean            =   1.1308814307018E+01
(PID.TID 0000.0001) %MON dynstat_salt_sd              =   5.1714847744749E-01
(PID.TID 0000.0001) %MON dynstat_salt_del2            =   5.6495438095108E-04
(PID.TID 0000.0001) %MON advcfl_uvel_max              =   5.3066031740560E-03
(PID.TID 0000.0001) %MON advcfl_vvel_max              =   1.5288819367940E-04
(PID.TID 0000.0001) %MON advcfl_wvel_max              =   1.8344233934937E-03
(PID.TID 0000.0001) %MON advcfl_W_hf_max              =   1.9566051403858E-03
(PID.TID 0000.0001) %MON pe_b_mean                    =   5.3243889578831E-05
(PID.TID 0000.0001) %MON ke_max                       =   1.0868590372350E-02
(PID.TID 0000.0001) %MON ke_mean                      =   2.3792048101614E-04
(PID.TID 0000.0001) %MON ke_vol                       =   5.0981346415358E+14
(PID.TID 0000.0001) // =======================================================
(PID.TID 0000.0001) // End MONITOR dynamic field statistics
(PID.TID 0000.0001) // =======================================================
 cg2d: Sum(rhs),rhsMax =  -2.45636844198316E-15  9.06306335174704E-01
(PID.TID 0000.0001)                    cg2d_init_res =    6.85652003881847E-03
(PID.TID 0000.0001)                       cg2d_iters =    28
(PID.TID 0000.0001)                         cg2d_res =    3.68030781150819E-16
(PID.TID 0000.0001) // =======================================================
(PID.TID 0000.0001) // Begin MONITOR dynamic field statistics
(PID.TID 0000.0001) // =======================================================
(PID.TID 0000.0001) %MON time_tsnumber                =                    10
(PID.TID 0000.0001) %MON time_secondsf                =   3.6000000000000E+04
(PID.TID 0000.0001) %MON dynstat_eta_max              =   3.6115994169917E-01
(PID.TID 0000.0001) %MON dynstat_eta_min              =  -8.3567794965094E-02
(PID.TID 0000.0001) %MON dynstat_eta_mean             =   4.8669179280599E-16
(PID.TID 0000.0001) %MON dynstat_eta_sd               =   1.3681140273153E-01
(PID.TID 0000.0001) %MON dynstat_eta_del2             =   5.7595838153520E-03
(PID.TID 0000.0001) %MON dynstat_uvel_max             =   1.4526783853869E-01
(PID.TID 0000.0001) %MON dynstat_uvel_min             =  -1.4679458386781E-01
(PID.TID 0000.0001) %MON dynstat_uvel_mean            =   2.5506521657965E-04
(PID.TID 0000.0001) %MON dynstat_uvel_sd              =   2.1675196284282E-02
(PID.TID 0000.0001) %MON dynstat_uvel_del2            =   6.6489198512320E-04
(PID.TID 0000.0001) %MON dynstat_vvel_max             =   5.9360683090048E-03
(PID.TID 0000.0001) %MON dynstat_vvel_min             =  -5.5072495350534E-03
(PID.TID 0000.0001) %MON dynstat_vvel_mean            =   6.1264188226278E-05
(PID.TID 0000.0001) %MON dynstat_vvel_sd              =   8.5765876858556E-04
(PID.TID 0000.0001) %MON dynstat_vvel_del2            =   8.8139042463445E-05
(PID.TID 0000.0001) %MON dynstat_wvel_max             =   1.3734826890043E-05
(PID.TID 0000.0001) %MON dynstat_wvel_min             =  -1.5434230157393E-05
(PID.TID 0000.0001) %MON dynstat_wvel_mean            =   5.3834230512770E-23
(PID.TID 0000.0001) %MON dynstat_wvel_sd              =   4.6152582528041E-06
(PID.TID 0000.0001) %MON dynstat_wvel_del2            =   4.3347677917514E-07
(PID.TID 0000.0001) %MON dynstat_theta_max            =   1.3328234771629E+01
(PID.TID 0000.0001) %MON dynstat_theta_min            =   6.2538407283021E+00
(PID.TID 0000.0001) %MON dynstat_theta_mean           =   8.4641503052825E+00
(PID.TID 0000.0001) %MON dynstat_theta_sd             =   1.4058061605911E+00
(PID.TID 0000.0001) %MON dynstat_theta_del2           =   7.3989810185140E-03
(PID.TID 0000.0001) %MON dynstat_salt_max             =   1.1996711641758E+01
(PID.TID 0000.0001) %MON dynstat_salt_min             =   1.0463805499044E+01
(PID.TID 0000.0001) %MON dynstat_salt_mean            =   1.1308813099051E+01
(PID.TID 0000.0001) %MON dynstat_salt_sd              =   5.1714051140092E-01
(PID.TID 0000.0001) %MON dynstat_salt_del2            =   5.6504297979125E-04
(PID.TID 0000.0001) %MON advcfl_uvel_max              =   5.2846050192412E-03
(PID.TID 0000.0001) %MON advcfl_vvel_max              =   2.1369845912417E-04
(PID.TID 0000.0001) %MON advcfl_wvel_max              =   1.4674038939216E-03
(PID.TID 0000.0001) %MON advcfl_W_hf_max              =   1.6001073604418E-03
(PID.TID 0000.0001) %MON pe_b_mean                    =   5.4024848410263E-05
(PID.TID 0000.0001) %MON ke_max                       =   1.0779513271133E-02
(PID.TID 0000.0001) %MON ke_mean                      =   2.3529476194270E-04
(PID.TID 0000.0001) %MON ke_vol                       =   5.0981346415358E+14
(PID.TID 0000.0001) // =======================================================
(PID.TID 0000.0001) // End MONITOR dynamic field statistics
(PID.TID 0000.0001) // =======================================================
 cg2d: Sum(rhs),rhsMax =  -5.85295700794575E-15  9.06280769045181E-01
(PID.TID 0000.0001)                    cg2d_init_res =    4.37320259924309E-03
(PID.TID 0000.0001)                       cg2d_iters =    28
(PID.TID 0000.0001)                         cg2d_res =    3.19941737013685E-16
(PID.TID 0000.0001) // =======================================================
(PID.TID 0000.0001) // Begin MONITOR dynamic field statistics
(PID.TID 0000.0001) // =======================================================
(PID.TID 0000.0001) %MON time_tsnumber                =                    11
(PID.TID 0000.0001) %MON time_secondsf                =   3.9600000000000E+04
(PID.TID 0000.0001) %MON dynstat_eta_max              =   3.6003430733426E-01
(PID.TID 0000.0001) %MON dynstat_eta_min              =  -8.3092573502649E-02
(PID.TID 0000.0001) %MON dynstat_eta_mean             =   5.8460235595703E-16
(PID.TID 0000.0001) %MON dynstat_eta_sd               =   1.3623427425620E-01
(PID.TID 0000.0001) %MON dynstat_eta_del2             =   5.7602138157289E-03
(PID.TID 0000.0001) %MON dynstat_uvel_max             =   1.4375352615807E-01
(PID.TID 0000.0001) %MON dynstat_uvel_min             =  -1.4512995871380E-01
(PID.TID 0000.0001) %MON dynstat_uvel_mean            =   2.4772713955355E-04
(PID.TID 0000.0001) %MON dynstat_uvel_sd              =   2.1408421429162E-02
(PID.TID 0000.0001) %MON dynstat_uvel_del2            =   6.5812386489950E-04
(PID.TID 0000.0001) %MON dynstat_vvel_max             =   8.7076143844823E-03
(PID.TID 0000.0001) %MON dynstat_vvel_min             =  -8.6455942797203E-03
(PID.TID 0000.0001) %MON dynstat_vvel_mean            =  -6.2944738270301E-05
(PID.TID 0000.0001) %MON dynstat_vvel_sd              =   1.2944164658181E-03
(PID.TID 0000.0001) %MON dynstat_vvel_del2            =   8.9706225339665E-05
(PID.TID 0000.0001) %MON dynstat_wvel_max             =   1.4166405815537E-05
(PID.TID 0000.0001) %MON dynstat_wvel_min             =  -2.4426428521089E-05
(PID.TID 0000.0001) %MON dynstat_wvel_mean            =   5.3834230512770E-23
(PID.TID 0000.0001) %MON dynstat_wvel_sd              =   5.7347613541925E-06
(PID.TID 0000.0001) %MON dynstat_wvel_del2            =   4.1096169442953E-07
(PID.TID 0000.0001) %MON dynstat_theta_max            =   1.3328568103362E+01
(PID.TID 0000.0001) %MON dynstat_theta_min            =   6.2538413495985E+00
(PID.TID 0000.0001) %MON dynstat_theta_mean           =   8.4641504296389E+00
(PID.TID 0000.0001) %MON dynstat_theta_sd             =   1.4058060082526E+00
(PID.TID 0000.0001) %MON dynstat_theta_del2           =   7.3991861999154E-03
(PID.TID 0000.0001) %MON dynstat_salt_max             =   1.1996726310513E+01
(PID.TID 0000.0001) %MON dynstat_salt_min             =   1.0463889463357E+01
(PID.TID 0000.0001) %MON dynstat_salt_mean            =   1.1308813190542E+01
(PID.TID 0000.0001) %MON dynstat_salt_sd              =   5.1713245086705E-01
(PID.TID 0000.0001) %MON dynstat_salt_del2            =   5.6511989927503E-04
(PID.TID 0000.0001) %MON advcfl_uvel_max              =   5.2246785136970E-03
(PID.TID 0000.0001) %MON advcfl_vvel_max              =   3.1347411784136E-04
(PID.TID 0000.0001) %MON advcfl_wvel_max              =   2.4230879281936E-03
(PID.TID 0000.0001) %MON advcfl_W_hf_max              =   2.6238572308161E-03
(PID.TID 0000.0001) %MON pe_b_mean                    =   5.3570010376785E-05
(PID.TID 0000.0001) %MON ke_max                       =   1.0545934995278E-02
(PID.TID 0000.0001) %MON ke_mean                      =   2.2999773780070E-04
(PID.TID 0000.0001) %MON ke_vol                       =   5.0981346415358E+14
(PID.TID 0000.0001) // =======================================================
(PID.TID 0000.0001) // End MONITOR dynamic field statistics
(PID.TID 0000.0001) // =======================================================
 cg2d: Sum(rhs),rhsMax =  -8.17401701880272E-15  9.05893517988307E-01
(PID.TID 0000.0001)                    cg2d_init_res =    7.06579687894045E-03
(PID.TID 0000.0001)                       cg2d_iters =    28
(PID.TID 0000.0001)                         cg2d_res =    2.61065326868846E-16
(PID.TID 0000.0001) // =======================================================
(PID.TID 0000.0001) // Begin MONITOR dynamic field statistics
(PID.TID 0000.0001) // =======================================================
(PID.TID 0000.0001) %MON time_tsnumber                =                    12
(PID.TID 0000.0001) %MON time_secondsf                =   4.3200000000000E+04
(PID.TID 0000.0001) %MON dynstat_eta_max              =   3.5812941177581E-01
(PID.TID 0000.0001) %MON dynstat_eta_min              =  -8.2032368368440E-02
(PID.TID 0000.0001) %MON dynstat_eta_mean             =   9.8768870035807E-16
(PID.TID 0000.0001) %MON dynstat_eta_sd               =   1.3528443355402E-01
(PID.TID 0000.0001) %MON dynstat_eta_del2             =   5.7611272909406E-03
(PID.TID 0000.0001) %MON dynstat_uvel_max             =   1.4130521429114E-01
(PID.TID 0000.0001) %MON dynstat_uvel_min             =  -1.4260677045877E-01
(PID.TID 0000.0001) %MON dynstat_uvel_mean            =   2.0039343455960E-04
(PID.TID 0000.0001) %MON dynstat_uvel_sd              =   2.1034815432484E-02
(PID.TID 0000.0001) %MON dynstat_uvel_del2            =   6.4439980258218E-04
(PID.TID 0000.0001) %MON dynstat_vvel_max             =   1.0736320469298E-02
(PID.TID 0000.0001) %MON dynstat_vvel_min             =  -1.0862556259984E-02
(PID.TID 0000.0001) %MON dynstat_vvel_mean            =  -1.3125822182177E-04
(PID.TID 0000.0001) %MON dynstat_vvel_sd              =   1.6604322833334E-03
(PID.TID 0000.0001) %MON dynstat_vvel_del2            =   9.4728469136421E-05
(PID.TID 0000.0001) %MON dynstat_wvel_max             =   2.0462534887223E-05
(PID.TID 0000.0001) %MON dynstat_wvel_min             =  -3.0408868506046E-05
(PID.TID 0000.0001) %MON dynstat_wvel_mean            =  -6.9215439230705E-23
(PID.TID 0000.0001) %MON dynstat_wvel_sd              =   7.0067298209459E-06
(PID.TID 0000.0001) %MON dynstat_wvel_del2            =   3.9279672741785E-07
(PID.TID 0000.0001) %MON dynstat_theta_max            =   1.3328931167153E+01
(PID.TID 0000.0001) %MON dynstat_theta_min            =   6.2538414086021E+00
(PID.TID 0000.0001) %MON dynstat_theta_mean           =   8.4641514414195E+00
(PID.TID 0000.0001) %MON dynstat_theta_sd             =   1.4058074940609E+00
(PID.TID 0000.0001) %MON dynstat_theta_del2           =   7.3999346485331E-03
(PID.TID 0000.0001) %MON dynstat_salt_max             =   1.1996741732439E+01
(PID.TID 0000.0001) %MON dynstat_salt_min             =   1.0463953192418E+01
(PID.TID 0000.0001) %MON dynstat_salt_mean            =   1.1308813843710E+01
(PID.TID 0000.0001) %MON dynstat_salt_sd              =   5.1712435512819E-01
(PID.TID 0000.0001) %MON dynstat_salt_del2            =   5.6519893156502E-04
(PID.TID 0000.0001) %MON advcfl_uvel_max              =   5.1338437365156E-03
(PID.TID 0000.0001) %MON advcfl_vvel_max              =   3.9105202535944E-04
(PID.TID 0000.0001) %MON advcfl_wvel_max              =   3.0352889601292E-03
(PID.TID 0000.0001) %MON advcfl_W_hf_max              =   3.2841681501213E-03
(PID.TID 0000.0001) %MON pe_b_mean                    =   5.2825622143663E-05
(PID.TID 0000.0001) %MON ke_max                       =   1.0195579541671E-02
(PID.TID 0000.0001) %MON ke_mean                      =   2.2258453085627E-04
(PID.TID 0000.0001) %MON ke_vol                       =   5.0981346415358E+14
(PID.TID 0000.0001) // =======================================================
(PID.TID 0000.0001) // End MONITOR dynamic field statistics
(PID.TID 0000.0001) // =======================================================
 cg2d: Sum(rhs),rhsMax =  -1.26912369502463E-14  9.06218243112069E-01
(PID.TID 0000.0001)                    cg2d_init_res =    4.75365876446280E-03
(PID.TID 0000.0001)                       cg2d_iters =    28
(PID.TID 0000.0001)                         cg2d_res =    2.13772110841353E-16
(PID.TID 0000.0001) // =======================================================
(PID.TID 0000.0001) // Begin MONITOR dynamic field statistics
(PID.TID 0000.0001) // =======================================================
(PID.TID 0000.0001) %MON time_tsnumber                =                    13
(PID.TID 0000.0001) %MON time_secondsf                =   4.6800000000000E+04
(PID.TID 0000.0001) %MON dynstat_eta_max              =   3.5726903601569E-01
(PID.TID 0000.0001) %MON dynstat_eta_min              =  -8.1003161625902E-02
(PID.TID 0000.0001) %MON dynstat_eta_mean             =   1.1024475097656E-15
(PID.TID 0000.0001) %MON dynstat_eta_sd               =   1.3478461863748E-01
(PID.TID 0000.0001) %MON dynstat_eta_del2             =   5.7628867024853E-03
(PID.TID 0000.0001) %MON dynstat_uvel_max             =   1.3828126406655E-01
(PID.TID 0000.0001) %MON dynstat_uvel_min             =  -1.3951249541225E-01
(PID.TID 0000.0001) %MON dynstat_uvel_mean            =   1.4123389652098E-04
(PID.TID 0000.0001) %MON dynstat_uvel_sd              =   2.0602839083497E-02
(PID.TID 0000.0001) %MON dynstat_uvel_del2            =   6.2570203324671E-04
(PID.TID 0000.0001) %MON dynstat_vvel_max             =   1.1762416814242E-02
(PID.TID 0000.0001) %MON dynstat_vvel_min             =  -1.1891299385964E-02
(PID.TID 0000.0001) %MON dynstat_vvel_mean            =  -1.3669517853932E-04
(PID.TID 0000.0001) %MON dynstat_vvel_sd              =   1.8486370732170E-03
(PID.TID 0000.0001) %MON dynstat_vvel_del2            =   9.8780514623660E-05
(PID.TID 0000.0001) %MON dynstat_wvel_max             =   2.5324179287169E-05
(PID.TID 0000.0001) %MON dynstat_wvel_min             =  -3.2802813539800E-05
(PID.TID 0000.0001) %MON dynstat_wvel_mean            =  -1.9995571333315E-22
(PID.TID 0000.0001) %MON dynstat_wvel_sd              =   7.8193692711521E-06
(PID.TID 0000.0001) %MON dynstat_wvel_del2            =   3.7576948383067E-07
(PID.TID 0000.0001) %MON dynstat_theta_max            =   1.3329390432323E+01
(PID.TID 0000.0001) %MON dynstat_theta_min            =   6.2538414441916E+00
(PID.TID 0000.0001) %MON dynstat_theta_mean           =   8.4641522242962E+00
(PID.TID 0000.0001) %MON dynstat_theta_sd             =   1.4058084977589E+00
(PID.TID 0000.0001) %MON dynstat_theta_del2           =   7.4010740709114E-03
(PID.TID 0000.0001) %MON dynstat_salt_max             =   1.1996760607471E+01
(PID.TID 0000.0001) %MON dynstat_salt_min             =   1.0463928686432E+01
(PID.TID 0000.0001) %MON dynstat_salt_mean            =   1.1308814346665E+01
(PID.TID 0000.0001) %MON dynstat_salt_sd              =   5.1711626815539E-01
(PID.TID 0000.0001) %MON dynstat_salt_del2            =   5.6528775757908E-04
(PID.TID 0000.0001) %MON advcfl_uvel_max              =   5.0224498348411E-03
(PID.TID 0000.0001) %MON advcfl_vvel_max              =   4.2808677789471E-04
(PID.TID 0000.0001) %MON advcfl_wvel_max              =   3.2661211207484E-03
(PID.TID 0000.0001) %MON advcfl_W_hf_max              =   3.5369272010110E-03
(PID.TID 0000.0001) %MON pe_b_mean                    =   5.2436009538812E-05
(PID.TID 0000.0001) %MON ke_max                       =   9.7683532173289E-03
(PID.TID 0000.0001) %MON ke_mean                      =   2.1389914377295E-04
(PID.TID 0000.0001) %MON ke_vol                       =   5.0981346415358E+14
(PID.TID 0000.0001) // =======================================================
(PID.TID 0000.0001) // End MONITOR dynamic field statistics
(PID.TID 0000.0001) // =======================================================
 cg2d: Sum(rhs),rhsMax =  -1.47590273336107E-14  9.07311785131271E-01
(PID.TID 0000.0001)                    cg2d_init_res =    2.57538973457437E-03
(PID.TID 0000.0001)                       cg2d_iters =    27
(PID.TID 0000.0001)                         cg2d_res =    6.42083875864735E-14
(PID.TID 0000.0001) // =======================================================
(PID.TID 0000.0001) // Begin MONITOR dynamic field statistics
(PID.TID 0000.0001) // =======================================================
(PID.TID 0000.0001) %MON time_tsnumber                =                    14
(PID.TID 0000.0001) %MON time_secondsf                =   5.0400000000000E+04
(PID.TID 0000.0001) %MON dynstat_eta_max              =   3.5753391555378E-01
(PID.TID 0000.0001) %MON dynstat_eta_min              =  -8.0356042625689E-02
(PID.TID 0000.0001) %MON dynstat_eta_mean             =   1.2737909952799E-15
(PID.TID 0000.0001) %MON dynstat_eta_sd               =   1.3484461271413E-01
(PID.TID 0000.0001) %MON dynstat_eta_del2             =   5.7652853264039E-03
(PID.TID 0000.0001) %MON dynstat_uvel_max             =   1.3511064386071E-01
(PID.TID 0000.0001) %MON dynstat_uvel_min             =  -1.3623068683189E-01
(PID.TID 0000.0001) %MON dynstat_uvel_mean            =   9.3525456118884E-05
(PID.TID 0000.0001) %MON dynstat_uvel_sd              =   2.0170109018204E-02
(PID.TID 0000.0001) %MON dynstat_uvel_del2            =   6.0448162400554E-04
(PID.TID 0000.0001) %MON dynstat_vvel_max             =   1.1603788939402E-02
(PID.TID 0000.0001) %MON dynstat_vvel_min             =  -1.1632060667513E-02
(PID.TID 0000.0001) %MON dynstat_vvel_mean            =  -9.6022079158357E-05
(PID.TID 0000.0001) %MON dynstat_vvel_sd              =   1.8357939196840E-03
(PID.TID 0000.0001) %MON dynstat_vvel_del2            =   9.8678961382644E-05
(PID.TID 0000.0001) %MON dynstat_wvel_max             =   2.7496348009564E-05
(PID.TID 0000.0001) %MON dynstat_wvel_min             =  -3.1544798508492E-05
(PID.TID 0000.0001) %MON dynstat_wvel_mean            =  -1.9995571333315E-22
(PID.TID 0000.0001) %MON dynstat_wvel_sd              =   7.9465406530051E-06
(PID.TID 0000.0001) %MON dynstat_wvel_del2            =   3.5584612497336E-07
(PID.TID 0000.0001) %MON dynstat_theta_max            =   1.3329985489640E+01
(PID.TID 0000.0001) %MON dynstat_theta_min            =   6.2538416933003E+00
(PID.TID 0000.0001) %MON dynstat_theta_mean           =   8.4641523744099E+00
(PID.TID 0000.0001) %MON dynstat_theta_sd             =   1.4058082502488E+00
(PID.TID 0000.0001) %MON dynstat_theta_del2           =   7.4024100587373E-03
(PID.TID 0000.0001) %MON dynstat_salt_max             =   1.1996784518496E+01
(PID.TID 0000.0001) %MON dynstat_salt_min             =   1.0463954616447E+01
(PID.TID 0000.0001) %MON dynstat_salt_mean            =   1.1308814447242E+01
(PID.TID 0000.0001) %MON dynstat_salt_sd              =   5.1710820306826E-01
(PID.TID 0000.0001) %MON dynstat_salt_del2            =   5.6538051894725E-04
(PID.TID 0000.0001) %MON advcfl_uvel_max              =   4.9043047259481E-03
(PID.TID 0000.0001) %MON advcfl_vvel_max              =   4.1875418403047E-04
(PID.TID 0000.0001) %MON advcfl_wvel_max              =   3.1430290176719E-03
(PID.TID 0000.0001) %MON advcfl_W_hf_max              =   3.4062458505829E-03
(PID.TID 0000.0001) %MON pe_b_mean                    =   5.2482699585984E-05
(PID.TID 0000.0001) %MON ke_max                       =   9.3166663852457E-03
(PID.TID 0000.0001) %MON ke_mean                      =   2.0504442469536E-04
(PID.TID 0000.0001) %MON ke_vol                       =   5.0981346415358E+14
(PID.TID 0000.0001) // =======================================================
(PID.TID 0000.0001) // End MONITOR dynamic field statistics
(PID.TID 0000.0001) // =======================================================
 cg2d: Sum(rhs),rhsMax =  -1.55986334959834E-14  9.08645630654101E-01
(PID.TID 0000.0001)                    cg2d_init_res =    2.58632171908866E-03
(PID.TID 0000.0001)                       cg2d_iters =    27
(PID.TID 0000.0001)                         cg2d_res =    2.45313193940922E-14
(PID.TID 0000.0001) // =======================================================
(PID.TID 0000.0001) // Begin MONITOR dynamic field statistics
(PID.TID 0000.0001) // =======================================================
(PID.TID 0000.0001) %MON time_tsnumber                =                    15
(PID.TID 0000.0001) %MON time_secondsf                =   5.4000000000000E+04
(PID.TID 0000.0001) %MON dynstat_eta_max              =   3.5823815058349E-01
(PID.TID 0000.0001) %MON dynstat_eta_min              =  -8.0171383469976E-02
(PID.TID 0000.0001) %MON dynstat_eta_mean             =   1.4117558797201E-15
(PID.TID 0000.0001) %MON dynstat_eta_sd               =   1.3515953444311E-01
(PID.TID 0000.0001) %MON dynstat_eta_del2             =   5.7677038385339E-03
(PID.TID 0000.0001) %MON dynstat_uvel_max             =   1.3222579788340E-01
(PID.TID 0000.0001) %MON dynstat_uvel_min             =  -1.3318789475328E-01
(PID.TID 0000.0001) %MON dynstat_uvel_mean            =   6.9663190875253E-05
(PID.TID 0000.0001) %MON dynstat_uvel_sd              =   1.9794174692698E-02
(PID.TID 0000.0001) %MON dynstat_uvel_del2            =   5.8333120761171E-04
(PID.TID 0000.0001) %MON dynstat_vvel_max             =   1.0225440007739E-02
(PID.TID 0000.0001) %MON dynstat_vvel_min             =  -1.0143506971452E-02
(PID.TID 0000.0001) %MON dynstat_vvel_mean            =  -3.5277350720776E-05
(PID.TID 0000.0001) %MON dynstat_vvel_sd              =   1.6315595000881E-03
(PID.TID 0000.0001) %MON dynstat_vvel_del2            =   9.3233555570494E-05
(PID.TID 0000.0001) %MON dynstat_wvel_max             =   2.6808267521419E-05
(PID.TID 0000.0001) %MON dynstat_wvel_min             =  -2.6897201085094E-05
(PID.TID 0000.0001) %MON dynstat_wvel_mean            =   5.7679532692254E-24
(PID.TID 0000.0001) %MON dynstat_wvel_sd              =   7.3645208470254E-06
(PID.TID 0000.0001) %MON dynstat_wvel_del2            =   3.3130688632390E-07
(PID.TID 0000.0001) %MON dynstat_theta_max            =   1.3330741297057E+01
(PID.TID 0000.0001) %MON dynstat_theta_min            =   6.2538421279905E+00
(PID.TID 0000.0001) %MON dynstat_theta_mean           =   8.4641520994080E+00
(PID.TID 0000.0001) %MON dynstat_theta_sd             =   1.4058071454590E+00
(PID.TID 0000.0001) %MON dynstat_theta_del2           =   7.4037329946243E-03
(PID.TID 0000.0001) %MON dynstat_salt_max             =   1.1996814467361E+01
(PID.TID 0000.0001) %MON dynstat_salt_min             =   1.0464003938632E+01
(PID.TID 0000.0001) %MON dynstat_salt_mean            =   1.1308814277922E+01
(PID.TID 0000.0001) %MON dynstat_salt_sd              =   5.1710015205610E-01
(PID.TID 0000.0001) %MON dynstat_salt_del2            =   5.6547082584084E-04
(PID.TID 0000.0001) %MON advcfl_uvel_max              =   4.7947642111180E-03
(PID.TID 0000.0001) %MON advcfl_vvel_max              =   3.6811584027860E-04
(PID.TID 0000.0001) %MON advcfl_wvel_max              =   2.7093115578622E-03
(PID.TID 0000.0001) %MON advcfl_W_hf_max              =   2.9358623885634E-03
(PID.TID 0000.0001) %MON pe_b_mean                    =   5.2728126410011E-05
(PID.TID 0000.0001) %MON ke_max                       =   8.8985244784470E-03
(PID.TID 0000.0001) %MON ke_mean                      =   1.9718648534999E-04
(PID.TID 0000.0001) %MON ke_vol                       =   5.0981346415358E+14
(PID.TID 0000.0001) // =======================================================
(PID.TID 0000.0001) // End MONITOR dynamic field statistics
(PID.TID 0000.0001) // =======================================================
 cg2d: Sum(rhs),rhsMax =  -1.78745906964650E-14  9.09680437176521E-01
(PID.TID 0000.0001)                    cg2d_init_res =    2.11599010679722E-03
(PID.TID 0000.0001)                       cg2d_iters =    27
(PID.TID 0000.0001)                         cg2d_res =    1.45455989965226E-14
(PID.TID 0000.0001) // =======================================================
(PID.TID 0000.0001) // Begin MONITOR dynamic field statistics
(PID.TID 0000.0001) // =======================================================
(PID.TID 0000.0001) %MON time_tsnumber                =                    16
(PID.TID 0000.0001) %MON time_secondsf                =   5.7600000000000E+04
(PID.TID 0000.0001) %MON dynstat_eta_max              =   3.5876568680040E-01
(PID.TID 0000.0001) %MON dynstat_eta_min              =  -8.0363051557922E-02
(PID.TID 0000.0001) %MON dynstat_eta_mean             =   1.5252431233724E-15
(PID.TID 0000.0001) %MON dynstat_eta_sd               =   1.3541218597443E-01
(PID.TID 0000.0001) %MON dynstat_eta_del2             =   5.7695712097230E-03
(PID.TID 0000.0001) %MON dynstat_uvel_max             =   1.2999558579213E-01
(PID.TID 0000.0001) %MON dynstat_uvel_min             =  -1.3077779346348E-01
(PID.TID 0000.0001) %MON dynstat_uvel_mean            =   7.1018983490169E-05
(PID.TID 0000.0001) %MON dynstat_uvel_sd              =   1.9521924359631E-02
(PID.TID 0000.0001) %MON dynstat_uvel_del2            =   5.6466279058248E-04
(PID.TID 0000.0001) %MON dynstat_vvel_max             =   7.7573508581137E-03
(PID.TID 0000.0001) %MON dynstat_vvel_min             =  -7.6211320258813E-03
(PID.TID 0000.0001) %MON dynstat_vvel_mean            =   2.1410730412872E-05
(PID.TID 0000.0001) %MON dynstat_vvel_sd              =   1.2818443190412E-03
(PID.TID 0000.0001) %MON dynstat_vvel_del2            =   8.3272262939820E-05
(PID.TID 0000.0001) %MON dynstat_wvel_max             =   2.3495715077056E-05
(PID.TID 0000.0001) %MON dynstat_wvel_min             =  -1.9383150428855E-05
(PID.TID 0000.0001) %MON dynstat_wvel_mean            =   9.9977856666574E-23
(PID.TID 0000.0001) %MON dynstat_wvel_sd              =   6.2147155967522E-06
(PID.TID 0000.0001) %MON dynstat_wvel_del2            =   3.0488542097424E-07
(PID.TID 0000.0001) %MON dynstat_theta_max            =   1.3331661284237E+01
(PID.TID 0000.0001) %MON dynstat_theta_min            =   6.2538426231730E+00
(PID.TID 0000.0001) %MON dynstat_theta_mean           =   8.4641517777304E+00
(PID.TID 0000.0001) %MON dynstat_theta_sd             =   1.4058059035021E+00
(PID.TID 0000.0001) %MON dynstat_theta_del2           =   7.4048406812355E-03
(PID.TID 0000.0001) %MON dynstat_salt_max             =   1.1996850618179E+01
(PID.TID 0000.0001) %MON dynstat_salt_min             =   1.0464079260834E+01
(PID.TID 0000.0001) %MON dynstat_salt_mean            =   1.1308814077495E+01
(PID.TID 0000.0001) %MON dynstat_salt_sd              =   5.1709210159142E-01
(PID.TID 0000.0001) %MON dynstat_salt_del2            =   5.6556660823908E-04
(PID.TID 0000.0001) %MON advcfl_uvel_max              =   4.7080005646852E-03
(PID.TID 0000.0001) %MON advcfl_vvel_max              =   2.7926463089209E-04
(PID.TID 0000.0001) %MON advcfl_wvel_max              =   2.3031396728814E-03
(PID.TID 0000.0001) %MON advcfl_W_hf_max              =   2.4950105652768E-03
(PID.TID 0000.0001) %MON pe_b_mean                    =   5.2925438321271E-05
(PID.TID 0000.0001) %MON ke_max                       =   8.5674146710525E-03
(PID.TID 0000.0001) %MON ke_mean                      =   1.9134484415788E-04
(PID.TID 0000.0001) %MON ke_vol                       =   5.0981346415358E+14
(PID.TID 0000.0001) // =======================================================
(PID.TID 0000.0001) // End MONITOR dynamic field statistics
(PID.TID 0000.0001) // =======================================================
 cg2d: Sum(rhs),rhsMax =  -1.94115556961805E-14  9.10174725600502E-01
(PID.TID 0000.0001)                    cg2d_init_res =    1.55964402106050E-03
(PID.TID 0000.0001)                       cg2d_iters =    27
(PID.TID 0000.0001)                         cg2d_res =    2.63993685705372E-14
(PID.TID 0000.0001) // =======================================================
(PID.TID 0000.0001) // Begin MONITOR dynamic field statistics
(PID.TID 0000.0001) // =======================================================
(PID.TID 0000.0001) %MON time_tsnumber                =                    17
(PID.TID 0000.0001) %MON time_secondsf                =   6.1200000000000E+04
(PID.TID 0000.0001) %MON dynstat_eta_max              =   3.5888690017245E-01
(PID.TID 0000.0001) %MON dynstat_eta_min              =  -8.0772566138645E-02
(PID.TID 0000.0001) %MON dynstat_eta_mean             =   1.4088948567708E-15
(PID.TID 0000.0001) %MON dynstat_eta_sd               =   1.3547968536892E-01
(PID.TID 0000.0001) %MON dynstat_eta_del2             =   5.7706003109851E-03
(PID.TID 0000.0001) %MON dynstat_uvel_max             =   1.2867542747085E-01
(PID.TID 0000.0001) %MON dynstat_uvel_min             =  -1.2929570434534E-01
(PID.TID 0000.0001) %MON dynstat_uvel_mean            =   9.0999070432305E-05
(PID.TID 0000.0001) %MON dynstat_uvel_sd              =   1.9382517876925E-02
(PID.TID 0000.0001) %MON dynstat_uvel_del2            =   5.5044143392010E-04
(PID.TID 0000.0001) %MON dynstat_vvel_max             =   5.2946508824542E-03
(PID.TID 0000.0001) %MON dynstat_vvel_min             =  -5.5914419126112E-03
(PID.TID 0000.0001) %MON dynstat_vvel_mean            =   5.7858051180803E-05
(PID.TID 0000.0001) %MON dynstat_vvel_sd              =   8.8934085672278E-04
(PID.TID 0000.0001) %MON dynstat_vvel_del2            =   7.1763128357533E-05
(PID.TID 0000.0001) %MON dynstat_wvel_max             =   1.8114223284070E-05
(PID.TID 0000.0001) %MON dynstat_wvel_min             =  -1.2397442827063E-05
(PID.TID 0000.0001) %MON dynstat_wvel_mean            =   1.5381208717934E-23
(PID.TID 0000.0001) %MON dynstat_wvel_sd              =   4.8404506934844E-06
(PID.TID 0000.0001) %MON dynstat_wvel_del2            =   2.8427370943340E-07
(PID.TID 0000.0001) %MON dynstat_theta_max            =   1.3332730558943E+01
(PID.TID 0000.0001) %MON dynstat_theta_min            =   6.2538430916999E+00
(PID.TID 0000.0001) %MON dynstat_theta_mean           =   8.4641516326032E+00
(PID.TID 0000.0001) %MON dynstat_theta_sd             =   1.4058049411099E+00
(PID.TID 0000.0001) %MON dynstat_theta_del2           =   7.4055280862295E-03
(PID.TID 0000.0001) %MON dynstat_salt_max             =   1.1996892423173E+01
(PID.TID 0000.0001) %MON dynstat_salt_min             =   1.0464129714449E+01
(PID.TID 0000.0001) %MON dynstat_salt_mean            =   1.1308813986585E+01
(PID.TID 0000.0001) %MON dynstat_salt_sd              =   5.1708404377781E-01
(PID.TID 0000.0001) %MON dynstat_salt_del2            =   5.6566530287329E-04
(PID.TID 0000.0001) %MON advcfl_uvel_max              =   4.6546453564322E-03
(PID.TID 0000.0001) %MON advcfl_vvel_max              =   2.0129190885400E-04
(PID.TID 0000.0001) %MON advcfl_wvel_max              =   1.8145085964106E-03
(PID.TID 0000.0001) %MON advcfl_W_hf_max              =   1.9640761251629E-03
(PID.TID 0000.0001) %MON pe_b_mean                    =   5.2978215335341E-05
(PID.TID 0000.0001) %MON ke_max                       =   8.3634268339934E-03
(PID.TID 0000.0001) %MON ke_mean                      =   1.8822669973064E-04
(PID.TID 0000.0001) %MON ke_vol                       =   5.0981346415358E+14
(PID.TID 0000.0001) // =======================================================
(PID.TID 0000.0001) // End MONITOR dynamic field statistics
(PID.TID 0000.0001) // =======================================================
 cg2d: Sum(rhs),rhsMax =  -1.79613268702639E-14  9.10167845575411E-01
(PID.TID 0000.0001)                    cg2d_init_res =    1.53511609004426E-03
(PID.TID 0000.0001)                       cg2d_iters =    27
(PID.TID 0000.0001)                         cg2d_res =    5.58222235748638E-14
(PID.TID 0000.0001) // =======================================================
(PID.TID 0000.0001) // Begin MONITOR dynamic field statistics
(PID.TID 0000.0001) // =======================================================
(PID.TID 0000.0001) %MON time_tsnumber                =                    18
(PID.TID 0000.0001) %MON time_secondsf                =   6.4800000000000E+04
(PID.TID 0000.0001) %MON dynstat_eta_max              =   3.5871857266335E-01
(PID.TID 0000.0001) %MON dynstat_eta_min              =  -8.1229256550741E-02
(PID.TID 0000.0001) %MON dynstat_eta_mean             =   1.2464523315430E-15
(PID.TID 0000.0001) %MON dynstat_eta_sd               =   1.3541492591064E-01
(PID.TID 0000.0001) %MON dynstat_eta_del2             =   5.7707770369604E-03
(PID.TID 0000.0001) %MON dynstat_uvel_max             =   1.2838188105298E-01
(PID.TID 0000.0001) %MON dynstat_uvel_min             =  -1.2889861140608E-01
(PID.TID 0000.0001) %MON dynstat_uvel_mean            =   1.1910181817325E-04
(PID.TID 0000.0001) %MON dynstat_uvel_sd              =   1.9385720679663E-02
(PID.TID 0000.0001) %MON dynstat_uvel_del2            =   5.4200982494104E-04
(PID.TID 0000.0001) %MON dynstat_vvel_max             =   5.4250720509911E-03
(PID.TID 0000.0001) %MON dynstat_vvel_min             =  -5.6683709807333E-03
(PID.TID 0000.0001) %MON dynstat_vvel_mean            =   6.7769792656350E-05
(PID.TID 0000.0001) %MON dynstat_vvel_sd              =   6.8765690753762E-04
(PID.TID 0000.0001) %MON dynstat_vvel_del2            =   6.3875549920222E-05
(PID.TID 0000.0001) %MON dynstat_wvel_max             =   1.1414040093419E-05
(PID.TID 0000.0001) %MON dynstat_wvel_min             =  -1.3725973901045E-05
(PID.TID 0000.0001) %MON dynstat_wvel_mean            =   3.0762417435869E-23
(PID.TID 0000.0001) %MON dynstat_wvel_sd              =   3.9086464856803E-06
(PID.TID 0000.0001) %MON dynstat_wvel_del2            =   2.7940703314771E-07
(PID.TID 0000.0001) %MON dynstat_theta_max            =   1.3333923144339E+01
(PID.TID 0000.0001) %MON dynstat_theta_min            =   6.2538435218854E+00
(PID.TID 0000.0001) %MON dynstat_theta_mean           =   8.4641516679859E+00
(PID.TID 0000.0001) %MON dynstat_theta_sd             =   1.4058042754388E+00
(PID.TID 0000.0001) %MON dynstat_theta_del2           =   7.4057277295979E-03
(PID.TID 0000.0001) %MON dynstat_salt_max             =   1.1996938899035E+01
(PID.TID 0000.0001) %MON dynstat_salt_min             =   1.0464160781738E+01
(PID.TID 0000.0001) %MON dynstat_salt_mean            =   1.1308814007806E+01
(PID.TID 0000.0001) %MON dynstat_salt_sd              =   5.1707597836045E-01
(PID.TID 0000.0001) %MON dynstat_salt_del2            =   5.6576952243570E-04
(PID.TID 0000.0001) %MON advcfl_uvel_max              =   4.6403500106190E-03
(PID.TID 0000.0001) %MON advcfl_vvel_max              =   2.0406135530640E-04
(PID.TID 0000.0001) %MON advcfl_wvel_max              =   1.2882565745986E-03
(PID.TID 0000.0001) %MON advcfl_W_hf_max              =   1.3987359724355E-03
(PID.TID 0000.0001) %MON pe_b_mean                    =   5.2927580134301E-05
(PID.TID 0000.0001) %MON ke_max                       =   8.3078383989980E-03
(PID.TID 0000.0001) %MON ke_mean                      =   1.8813954389042E-04
(PID.TID 0000.0001) %MON ke_vol                       =   5.0981346415358E+14
(PID.TID 0000.0001) // =======================================================
(PID.TID 0000.0001) // End MONITOR dynamic field statistics
(PID.TID 0000.0001) // =======================================================
 cg2d: Sum(rhs),rhsMax =  -1.51441359452775E-14  9.09800000085277E-01
(PID.TID 0000.0001)                    cg2d_init_res =    1.38204141779788E-03
(PID.TID 0000.0001)                       cg2d_iters =    27
(PID.TID 0000.0001)                         cg2d_res =    7.19687479981730E-14
(PID.TID 0000.0001) // =======================================================
(PID.TID 0000.0001) // Begin MONITOR dynamic field statistics
(PID.TID 0000.0001) // =======================================================
(PID.TID 0000.0001) %MON time_tsnumber                =                    19
(PID.TID 0000.0001) %MON time_secondsf                =   6.8400000000000E+04
(PID.TID 0000.0001) %MON dynstat_eta_max              =   3.5848880358592E-01
(PID.TID 0000.0001) %MON dynstat_eta_min              =  -8.1589978993051E-02
(PID.TID 0000.0001) %MON dynstat_eta_mean             =   1.3682047526042E-15
(PID.TID 0000.0001) %MON dynstat_eta_sd               =   1.3532653581657E-01
(PID.TID 0000.0001) %MON dynstat_eta_del2             =   5.7702618847269E-03
(PID.TID 0000.0001) %MON dynstat_uvel_max             =   1.2909007775820E-01
(PID.TID 0000.0001) %MON dynstat_uvel_min             =  -1.2959107509690E-01
(PID.TID 0000.0001) %MON dynstat_uvel_mean            =   1.4477277083608E-04
(PID.TID 0000.0001) %MON dynstat_uvel_sd              =   1.9523999203979E-02
(PID.TID 0000.0001) %MON dynstat_uvel_del2            =   5.4000732531330E-04
(PID.TID 0000.0001) %MON dynstat_vvel_max             =   5.0446511481046E-03
(PID.TID 0000.0001) %MON dynstat_vvel_min             =  -5.2605060806497E-03
(PID.TID 0000.0001) %MON dynstat_vvel_mean            =   5.3983269689190E-05
(PID.TID 0000.0001) %MON dynstat_vvel_sd              =   8.8561468895431E-04
(PID.TID 0000.0001) %MON dynstat_vvel_del2            =   6.4687687584844E-05
(PID.TID 0000.0001) %MON dynstat_wvel_max             =   1.1581074146522E-05
(PID.TID 0000.0001) %MON dynstat_wvel_min             =  -1.7669115323148E-05
(PID.TID 0000.0001) %MON dynstat_wvel_mean            =   4.6143626153803E-23
(PID.TID 0000.0001) %MON dynstat_wvel_sd              =   4.1623263785606E-06
(PID.TID 0000.0001) %MON dynstat_wvel_del2            =   2.9527788247188E-07
(PID.TID 0000.0001) %MON dynstat_theta_max            =   1.3335213290783E+01
(PID.TID 0000.0001) %MON dynstat_theta_min            =   6.2538439464436E+00
(PID.TID 0000.0001) %MON dynstat_theta_mean           =   8.4641517738220E+00
(PID.TID 0000.0001) %MON dynstat_theta_sd             =   1.4058036921171E+00
(PID.TID 0000.0001) %MON dynstat_theta_del2           =   7.4053975972064E-03
(PID.TID 0000.0001) %MON dynstat_salt_max             =   1.1996989074262E+01
(PID.TID 0000.0001) %MON dynstat_salt_min             =   1.0464192677288E+01
(PID.TID 0000.0001) %MON dynstat_salt_mean            =   1.1308814072334E+01
(PID.TID 0000.0001) %MON dynstat_salt_sd              =   5.1706790826551E-01
(PID.TID 0000.0001) %MON dynstat_salt_del2            =   5.6586855124022E-04
(PID.TID 0000.0001) %MON advcfl_uvel_max              =   4.6652787034884E-03
(PID.TID 0000.0001) %MON advcfl_vvel_max              =   1.8937821890339E-04
(PID.TID 0000.0001) %MON advcfl_wvel_max              =   1.6723273461939E-03
(PID.TID 0000.0001) %MON advcfl_W_hf_max              =   1.8152201931108E-03
(PID.TID 0000.0001) %MON pe_b_mean                    =   5.2858507291433E-05
(PID.TID 0000.0001) %MON ke_max                       =   8.4012436743223E-03
(PID.TID 0000.0001) %MON ke_mean                      =   1.9098192636693E-04
(PID.TID 0000.0001) %MON ke_vol                       =   5.0981346415358E+14
(PID.TID 0000.0001) // =======================================================
(PID.TID 0000.0001) // End MONITOR dynamic field statistics
(PID.TID 0000.0001) // =======================================================
 cg2d: Sum(rhs),rhsMax =  -1.71251901548430E-14  9.09191855191810E-01
(PID.TID 0000.0001)                    cg2d_init_res =    1.18582738113852E-03
(PID.TID 0000.0001)                       cg2d_iters =    27
(PID.TID 0000.0001)                         cg2d_res =    1.09132211270241E-14
(PID.TID 0000.0001) // =======================================================
(PID.TID 0000.0001) // Begin MONITOR dynamic field statistics
(PID.TID 0000.0001) // =======================================================
(PID.TID 0000.0001) %MON time_tsnumber                =                    20
(PID.TID 0000.0001) %MON time_secondsf                =   7.2000000000000E+04
(PID.TID 0000.0001) %MON dynstat_eta_max              =   3.5834892935582E-01
(PID.TID 0000.0001) %MON dynstat_eta_min              =  -8.1767774681308E-02
(PID.TID 0000.0001) %MON dynstat_eta_mean             =   1.3888676961263E-15
(PID.TID 0000.0001) %MON dynstat_eta_sd               =   1.3528445384419E-01
(PID.TID 0000.0001) %MON dynstat_eta_del2             =   5.7692300319325E-03
(PID.TID 0000.0001) %MON dynstat_uvel_max             =   1.3064863030967E-01
(PID.TID 0000.0001) %MON dynstat_uvel_min             =  -1.3123228983046E-01
(PID.TID 0000.0001) %MON dynstat_uvel_mean            =   1.6041320479322E-04
(PID.TID 0000.0001) %MON dynstat_uvel_sd              =   1.9775781236388E-02
(PID.TID 0000.0001) %MON dynstat_uvel_del2            =   5.4436357647296E-04
(PID.TID 0000.0001) %MON dynstat_vvel_max             =   6.0776804145996E-03
(PID.TID 0000.0001) %MON dynstat_vvel_min             =  -6.4389084940359E-03
(PID.TID 0000.0001) %MON dynstat_vvel_mean            =   2.5813431069488E-05
(PID.TID 0000.0001) %MON dynstat_vvel_sd              =   1.2353795149197E-03
(PID.TID 0000.0001) %MON dynstat_vvel_del2            =   7.3763023819338E-05
(PID.TID 0000.0001) %MON dynstat_wvel_max             =   2.0751637757825E-05
(PID.TID 0000.0001) %MON dynstat_wvel_min             =  -2.0080595112487E-05
(PID.TID 0000.0001) %MON dynstat_wvel_mean            =  -5.5756881602512E-23
(PID.TID 0000.0001) %MON dynstat_wvel_sd              =   5.2983502680155E-06
(PID.TID 0000.0001) %MON dynstat_wvel_del2            =   3.2682899506378E-07
(PID.TID 0000.0001) %MON dynstat_theta_max            =   1.3336573821569E+01
(PID.TID 0000.0001) %MON dynstat_theta_min            =   6.2538444006022E+00
(PID.TID 0000.0001) %MON dynstat_theta_mean           =   8.4641518495492E+00
(PID.TID 0000.0001) %MON dynstat_theta_sd             =   1.4058030115494E+00
(PID.TID 0000.0001) %MON dynstat_theta_del2           =   7.4046019008883E-03
(PID.TID 0000.0001) %MON dynstat_salt_max             =   1.1997041910234E+01
(PID.TID 0000.0001) %MON dynstat_salt_min             =   1.0464225169164E+01
(PID.TID 0000.0001) %MON dynstat_salt_mean            =   1.1308814117661E+01
(PID.TID 0000.0001) %MON dynstat_salt_sd              =   5.1705983777403E-01
(PID.TID 0000.0001) %MON dynstat_salt_del2            =   5.6597633987314E-04
(PID.TID 0000.0001) %MON advcfl_uvel_max              =   4.7243624338965E-03
(PID.TID 0000.0001) %MON advcfl_vvel_max              =   2.3180070578529E-04
(PID.TID 0000.0001) %MON advcfl_wvel_max              =   1.9136368419299E-03
(PID.TID 0000.0001) %MON advcfl_W_hf_max              =   2.0769448784482E-03
(PID.TID 0000.0001) %MON pe_b_mean                    =   5.2825637989403E-05
(PID.TID 0000.0001) %MON ke_max                       =   8.6244867234868E-03
(PID.TID 0000.0001) %MON ke_mean                      =   1.9628709755069E-04
(PID.TID 0000.0001) %MON ke_vol                       =   5.0981346415358E+14
(PID.TID 0000.0001) // =======================================================
(PID.TID 0000.0001) // End MONITOR dynamic field statistics
(PID.TID 0000.0001) // =======================================================
 cg2d: Sum(rhs),rhsMax =  -1.71182512609391E-14  9.08402201311998E-01
(PID.TID 0000.0001)                    cg2d_init_res =    1.42512606529448E-03
(PID.TID 0000.0001)                       cg2d_iters =    27
(PID.TID 0000.0001)                         cg2d_res =    9.50464717623975E-14
(PID.TID 0000.0001) // =======================================================
(PID.TID 0000.0001) // Begin MONITOR dynamic field statistics
(PID.TID 0000.0001) // =======================================================
(PID.TID 0000.0001) %MON time_tsnumber                =                    21
(PID.TID 0000.0001) %MON time_secondsf                =   7.5600000000000E+04
(PID.TID 0000.0001) %MON dynstat_eta_max              =   3.5832374202836E-01
(PID.TID 0000.0001) %MON dynstat_eta_min              =  -8.1746324956357E-02
(PID.TID 0000.0001) %MON dynstat_eta_mean             =   1.3478597005208E-15
(PID.TID 0000.0001) %MON dynstat_eta_sd               =   1.3529753666560E-01
(PID.TID 0000.0001) %MON dynstat_eta_del2             =   5.7678435780980E-03
(PID.TID 0000.0001) %MON dynstat_uvel_max             =   1.3280631047588E-01
(PID.TID 0000.0001) %MON dynstat_uvel_min             =  -1.3355962335394E-01
(PID.TID 0000.0001) %MON dynstat_uvel_mean            =   1.6305857807274E-04
(PID.TID 0000.0001) %MON dynstat_uvel_sd              =   2.0108367886366E-02
(PID.TID 0000.0001) %MON dynstat_uvel_del2            =   5.5433338998025E-04
(PID.TID 0000.0001) %MON dynstat_vvel_max             =   8.5898048782420E-03
(PID.TID 0000.0001) %MON dynstat_vvel_min             =  -9.1020197433477E-03
(PID.TID 0000.0001) %MON dynstat_vvel_mean            =  -4.8384025551408E-06
(PID.TID 0000.0001) %MON dynstat_vvel_sd              =   1.5224306294641E-03
(PID.TID 0000.0001) %MON dynstat_vvel_del2            =   8.5799873013467E-05
(PID.TID 0000.0001) %MON dynstat_wvel_max             =   2.7822798862126E-05
(PID.TID 0000.0001) %MON dynstat_wvel_min             =  -2.0707274800726E-05
(PID.TID 0000.0001) %MON dynstat_wvel_mean            =  -7.4022066955059E-23
(PID.TID 0000.0001) %MON dynstat_wvel_sd              =   6.5050562769888E-06
(PID.TID 0000.0001) %MON dynstat_wvel_del2            =   3.6310458337363E-07
(PID.TID 0000.0001) %MON dynstat_theta_max            =   1.3337981517296E+01
(PID.TID 0000.0001) %MON dynstat_theta_min            =   6.2538449029513E+00
(PID.TID 0000.0001) %MON dynstat_theta_mean           =   8.4641518603872E+00
(PID.TID 0000.0001) %MON dynstat_theta_sd             =   1.4058021607215E+00
(PID.TID 0000.0001) %MON dynstat_theta_del2           =   7.4035572586582E-03
(PID.TID 0000.0001) %MON dynstat_salt_max             =   1.1997096480521E+01
(PID.TID 0000.0001) %MON dynstat_salt_min             =   1.0464258099646E+01
(PID.TID 0000.0001) %MON dynstat_salt_mean            =   1.1308814122589E+01
(PID.TID 0000.0001) %MON dynstat_salt_sd              =   5.1705176731481E-01
(PID.TID 0000.0001) %MON dynstat_salt_del2            =   5.6609160017133E-04
(PID.TID 0000.0001) %MON advcfl_uvel_max              =   4.8081464407417E-03
(PID.TID 0000.0001) %MON advcfl_vvel_max              =   3.2767271076052E-04
(PID.TID 0000.0001) %MON advcfl_wvel_max              =   2.5609376550145E-03
(PID.TID 0000.0001) %MON advcfl_W_hf_max              =   2.7859773790204E-03
(PID.TID 0000.0001) %MON pe_b_mean                    =   5.2835855598086E-05
(PID.TID 0000.0001) %MON ke_max                       =   8.9417458790021E-03
(PID.TID 0000.0001) %MON ke_mean                      =   2.0329997471460E-04
(PID.TID 0000.0001) %MON ke_vol                       =   5.0981346415358E+14
(PID.TID 0000.0001) // =======================================================
(PID.TID 0000.0001) // End MONITOR dynamic field statistics
(PID.TID 0000.0001) // =======================================================
 cg2d: Sum(rhs),rhsMax =  -1.73992764640474E-14  9.07467917773187E-01
(PID.TID 0000.0001)                    cg2d_init_res =    1.79833350898017E-03
(PID.TID 0000.0001)                       cg2d_iters =    28
(PID.TID 0000.0001)                         cg2d_res =    1.44263178343614E-16
(PID.TID 0000.0001) // =======================================================
(PID.TID 0000.0001) // Begin MONITOR dynamic field statistics
(PID.TID 0000.0001) // =======================================================
(PID.TID 0000.0001) %MON time_tsnumber                =                    22
(PID.TID 0000.0001) %MON time_secondsf                =   7.9200000000000E+04
(PID.TID 0000.0001) %MON dynstat_eta_max              =   3.5836093367902E-01
(PID.TID 0000.0001) %MON dynstat_eta_min              =  -8.1574213369683E-02
(PID.TID 0000.0001) %MON dynstat_eta_mean             =   1.6727447509766E-15
(PID.TID 0000.0001) %MON dynstat_eta_sd               =   1.3533938335757E-01
(PID.TID 0000.0001) %MON dynstat_eta_del2             =   5.7662196825788E-03
(PID.TID 0000.0001) %MON dynstat_uvel_max             =   1.3524705115479E-01
(PID.TID 0000.0001) %MON dynstat_uvel_min             =  -1.3622608187062E-01
(PID.TID 0000.0001) %MON dynstat_uvel_mean            =   1.5444180687483E-04
(PID.TID 0000.0001) %MON dynstat_uvel_sd              =   2.0480681606958E-02
(PID.TID 0000.0001) %MON dynstat_uvel_del2            =   5.6857284841656E-04
(PID.TID 0000.0001) %MON dynstat_vvel_max             =   1.0170707441796E-02
(PID.TID 0000.0001) %MON dynstat_vvel_min             =  -1.0763869050470E-02
(PID.TID 0000.0001) %MON dynstat_vvel_mean            =  -2.7590933650490E-05
(PID.TID 0000.0001) %MON dynstat_vvel_sd              =   1.6690990103277E-03
(PID.TID 0000.0001) %MON dynstat_vvel_del2            =   9.5954074122326E-05
(PID.TID 0000.0001) %MON dynstat_wvel_max             =   3.1944936003314E-05
(PID.TID 0000.0001) %MON dynstat_wvel_min             =  -1.9487604949982E-05
(PID.TID 0000.0001) %MON dynstat_wvel_mean            =   2.4609933948695E-22
(PID.TID 0000.0001) %MON dynstat_wvel_sd              =   7.3265619979602E-06
(PID.TID 0000.0001) %MON dynstat_wvel_del2            =   3.9379207239127E-07
(PID.TID 0000.0001) %MON dynstat_theta_max            =   1.3339394066537E+01
(PID.TID 0000.0001) %MON dynstat_theta_min            =   6.2538454584947E+00
(PID.TID 0000.0001) %MON dynstat_theta_mean           =   8.4641518254120E+00
(PID.TID 0000.0001) %MON dynstat_theta_sd             =   1.4058011736412E+00
(PID.TID 0000.0001) %MON dynstat_theta_del2           =   7.4020616239722E-03
(PID.TID 0000.0001) %MON dynstat_salt_max             =   1.1997151173623E+01
(PID.TID 0000.0001) %MON dynstat_salt_min             =   1.0464291391377E+01
(PID.TID 0000.0001) %MON dynstat_salt_mean            =   1.1308814099508E+01
(PID.TID 0000.0001) %MON dynstat_salt_sd              =   5.1704369652859E-01
(PID.TID 0000.0001) %MON dynstat_salt_del2            =   5.6619677950865E-04
(PID.TID 0000.0001) %MON advcfl_uvel_max              =   4.9041389473423E-03
(PID.TID 0000.0001) %MON advcfl_vvel_max              =   3.8749928581692E-04
(PID.TID 0000.0001) %MON advcfl_wvel_max              =   3.0003169201880E-03
(PID.TID 0000.0001) %MON advcfl_W_hf_max              =   3.2600636356245E-03
(PID.TID 0000.0001) %MON pe_b_mean                    =   5.2868544259740E-05
(PID.TID 0000.0001) %MON ke_max                       =   9.3055219088275E-03
(PID.TID 0000.0001) %MON ke_mean                      =   2.1107975899785E-04
(PID.TID 0000.0001) %MON ke_vol                       =   5.0981346415358E+14
(PID.TID 0000.0001) // =======================================================
(PID.TID 0000.0001) // End MONITOR dynamic field statistics
(PID.TID 0000.0001) // =======================================================
 cg2d: Sum(rhs),rhsMax =  -2.14932238673526E-14  9.06397099856071E-01
(PID.TID 0000.0001)                    cg2d_init_res =    2.12481026226132E-03
(PID.TID 0000.0001)                       cg2d_iters =    28
(PID.TID 0000.0001)                         cg2d_res =    2.46776640314516E-16
(PID.TID 0000.0001) // =======================================================
(PID.TID 0000.0001) // Begin MONITOR dynamic field statistics
(PID.TID 0000.0001) // =======================================================
(PID.TID 0000.0001) %MON time_tsnumber                =                    23
(PID.TID 0000.0001) %MON time_secondsf                =   8.2800000000000E+04
(PID.TID 0000.0001) %MON dynstat_eta_max              =   3.5840039820088E-01
(PID.TID 0000.0001) %MON dynstat_eta_min              =  -8.1338925792408E-02
(PID.TID 0000.0001) %MON dynstat_eta_mean             =   1.4384587605794E-15
(PID.TID 0000.0001) %MON dynstat_eta_sd               =   1.3538199746760E-01
(PID.TID 0000.0001) %MON dynstat_eta_del2             =   5.7646700119898E-03
(PID.TID 0000.0001) %MON dynstat_uvel_max             =   1.3762940768555E-01
(PID.TID 0000.0001) %MON dynstat_uvel_min             =  -1.3884730590027E-01
(PID.TID 0000.0001) %MON dynstat_uvel_mean            =   1.3958545015202E-04
(PID.TID 0000.0001) %MON dynstat_uvel_sd              =   2.0846861480334E-02
(PID.TID 0000.0001) %MON dynstat_uvel_del2            =   5.8527174855727E-04
(PID.TID 0000.0001) %MON dynstat_vvel_max             =   1.0692262123958E-02
(PID.TID 0000.0001) %MON dynstat_vvel_min             =  -1.1277224636434E-02
(PID.TID 0000.0001) %MON dynstat_vvel_mean            =  -3.6638812635723E-05
(PID.TID 0000.0001) %MON dynstat_vvel_sd              =   1.6538942681108E-03
(PID.TID 0000.0001) %MON dynstat_vvel_del2            =   1.0143684240892E-04
(PID.TID 0000.0001) %MON dynstat_wvel_max             =   3.2764561085693E-05
(PID.TID 0000.0001) %MON dynstat_wvel_min             =  -1.6561361334771E-05
(PID.TID 0000.0001) %MON dynstat_wvel_mean            =   2.3071813076902E-23
(PID.TID 0000.0001) %MON dynstat_wvel_sd              =   7.5799385215645E-06
(PID.TID 0000.0001) %MON dynstat_wvel_del2            =   4.1190186941814E-07
(PID.TID 0000.0001) %MON dynstat_theta_max            =   1.3340806463734E+01
(PID.TID 0000.0001) %MON dynstat_theta_min            =   6.2538460677110E+00
(PID.TID 0000.0001) %MON dynstat_theta_mean           =   8.4641517795817E+00
(PID.TID 0000.0001) %MON dynstat_theta_sd             =   1.4058001828672E+00
(PID.TID 0000.0001) %MON dynstat_theta_del2           =   7.4005713560667E-03
(PID.TID 0000.0001) %MON dynstat_salt_max             =   1.1997205861390E+01
(PID.TID 0000.0001) %MON dynstat_salt_min             =   1.0464325033289E+01
(PID.TID 0000.0001) %MON dynstat_salt_mean            =   1.1308814070366E+01
(PID.TID 0000.0001) %MON dynstat_salt_sd              =   5.1703562516910E-01
(PID.TID 0000.0001) %MON dynstat_salt_del2            =   5.6630255481103E-04
(PID.TID 0000.0001) %MON advcfl_uvel_max              =   4.9985030124095E-03
(PID.TID 0000.0001) %MON advcfl_vvel_max              =   4.0598008691164E-04
(PID.TID 0000.0001) %MON advcfl_wvel_max              =   3.1252579854374E-03
(PID.TID 0000.0001) %MON advcfl_W_hf_max              =   3.3928566749797E-03
(PID.TID 0000.0001) %MON pe_b_mean                    =   5.2901842780795E-05
(PID.TID 0000.0001) %MON ke_max                       =   9.6630655333037E-03
(PID.TID 0000.0001) %MON ke_mean                      =   2.1862023962765E-04
(PID.TID 0000.0001) %MON ke_vol                       =   5.0981346415358E+14
(PID.TID 0000.0001) // =======================================================
(PID.TID 0000.0001) // End MONITOR dynamic field statistics
(PID.TID 0000.0001) // =======================================================
 cg2d: Sum(rhs),rhsMax =  -1.73194791841524E-14  9.05294826108640E-01
(PID.TID 0000.0001)                    cg2d_init_res =    2.12361122386419E-03
(PID.TID 0000.0001)                       cg2d_iters =    28
(PID.TID 0000.0001)                         cg2d_res =    2.93418573554247E-16
(PID.TID 0000.0001) // =======================================================
(PID.TID 0000.0001) // Begin MONITOR dynamic field statistics
(PID.TID 0000.0001) // =======================================================
(PID.TID 0000.0001) %MON time_tsnumber                =                    24
(PID.TID 0000.0001) %MON time_secondsf                =   8.6400000000000E+04
(PID.TID 0000.0001) %MON dynstat_eta_max              =   3.5841207852700E-01
(PID.TID 0000.0001) %MON dynstat_eta_min              =  -8.1131955646660E-02
(PID.TID 0000.0001) %MON dynstat_eta_mean             =   1.5354156494141E-15
(PID.TID 0000.0001) %MON dynstat_eta_sd               =   1.3541189407152E-01
(PID.TID 0000.0001) %MON dynstat_eta_del2             =   5.7632500031033E-03
(PID.TID 0000.0001) %MON dynstat_uvel_max             =   1.3962938206084E-01
(PID.TID 0000.0001) %MON dynstat_uvel_min             =  -1.4105486286714E-01
(PID.TID 0000.0001) %MON dynstat_uvel_mean            =   1.2455619640369E-04
(PID.TID 0000.0001) %MON dynstat_uvel_sd              =   2.1161261693984E-02
(PID.TID 0000.0001) %MON dynstat_uvel_del2            =   6.0233907045007E-04
(PID.TID 0000.0001) %MON dynstat_vvel_max             =   1.0143214259384E-02
(PID.TID 0000.0001) %MON dynstat_vvel_min             =  -1.0634489100230E-02
(PID.TID 0000.0001) %MON dynstat_vvel_mean            =  -3.1839616146813E-05
(PID.TID 0000.0001) %MON dynstat_vvel_sd              =   1.4917166248052E-03
(PID.TID 0000.0001) %MON dynstat_vvel_del2            =   1.0124567212904E-04
(PID.TID 0000.0001) %MON dynstat_wvel_max             =   3.0314512948778E-05
(PID.TID 0000.0001) %MON dynstat_wvel_min             =  -1.5431701673525E-05
(PID.TID 0000.0001) %MON dynstat_wvel_mean            =   1.5381208717934E-22
(PID.TID 0000.0001) %MON dynstat_wvel_sd              =   7.2474659868939E-06
(PID.TID 0000.0001) %MON dynstat_wvel_del2            =   4.1435064656435E-07
(PID.TID 0000.0001) %MON dynstat_theta_max            =   1.3342183380438E+01
(PID.TID 0000.0001) %MON dynstat_theta_min            =   6.2538467294939E+00
(PID.TID 0000.0001) %MON dynstat_theta_mean           =   8.4641517453410E+00
(PID.TID 0000.0001) %MON dynstat_theta_sd             =   1.4057991771170E+00
(PID.TID 0000.0001) %MON dynstat_theta_del2           =   7.3991475058864E-03
(PID.TID 0000.0001) %MON dynstat_salt_max             =   1.1997259128705E+01
(PID.TID 0000.0001) %MON dynstat_salt_min             =   1.0464359044714E+01
(PID.TID 0000.0001) %MON dynstat_salt_mean            =   1.1308814049353E+01
(PID.TID 0000.0001) %MON dynstat_salt_sd              =   5.1702755173996E-01
(PID.TID 0000.0001) %MON dynstat_salt_del2            =   5.6640495433504E-04
(PID.TID 0000.0001) %MON advcfl_uvel_max              =   5.0779750632171E-03
(PID.TID 0000.0001) %MON advcfl_vvel_max              =   3.8284160760827E-04
(PID.TID 0000.0001) %MON advcfl_wvel_max              =   2.9360547726100E-03
(PID.TID 0000.0001) %MON advcfl_W_hf_max              =   3.1847398954080E-03
(PID.TID 0000.0001) %MON pe_b_mean                    =   5.2925210142799E-05
(PID.TID 0000.0001) %MON ke_max                       =   9.9637651073158E-03
(PID.TID 0000.0001) %MON ke_mean                      =   2.2497670963933E-04
(PID.TID 0000.0001) %MON ke_vol                       =   5.0981346415358E+14
(PID.TID 0000.0001) // =======================================================
(PID.TID 0000.0001) // End MONITOR dynamic field statistics
(PID.TID 0000.0001) // =======================================================
 cg2d: Sum(rhs),rhsMax =  -1.98660532468864E-14  9.04249570396122E-01
(PID.TID 0000.0001)                    cg2d_init_res =    1.99041872927352E-03
(PID.TID 0000.0001)                       cg2d_iters =    28
(PID.TID 0000.0001)                         cg2d_res =    3.32306483635259E-16
(PID.TID 0000.0001) // =======================================================
(PID.TID 0000.0001) // Begin MONITOR dynamic field statistics
(PID.TID 0000.0001) // =======================================================
(PID.TID 0000.0001) %MON time_tsnumber                =                    25
(PID.TID 0000.0001) %MON time_secondsf                =   9.0000000000000E+04
(PID.TID 0000.0001) %MON dynstat_eta_max              =   3.5839806878829E-01
(PID.TID 0000.0001) %MON dynstat_eta_min              =  -8.1016458204182E-02
(PID.TID 0000.0001) %MON dynstat_eta_mean             =   1.8154780069987E-15
(PID.TID 0000.0001) %MON dynstat_eta_sd               =   1.3543014497743E-01
(PID.TID 0000.0001) %MON dynstat_eta_del2             =   5.7621687480597E-03
(PID.TID 0000.0001) %MON dynstat_uvel_max             =   1.4097858233438E-01
(PID.TID 0000.0001) %MON dynstat_uvel_min             =  -1.4254446661332E-01
(PID.TID 0000.0001) %MON dynstat_uvel_mean            =   1.1426006141364E-04
(PID.TID 0000.0001) %MON dynstat_uvel_sd              =   2.1384440908713E-02
(PID.TID 0000.0001) %MON dynstat_uvel_del2            =   6.1766129341660E-04
(PID.TID 0000.0001) %MON dynstat_vvel_max             =   8.6237923911860E-03
(PID.TID 0000.0001) %MON dynstat_vvel_min             =  -8.9589490616241E-03
(PID.TID 0000.0001) %MON dynstat_vvel_mean            =  -1.7696017423225E-05
(PID.TID 0000.0001) %MON dynstat_vvel_sd              =   1.2321861812488E-03
(PID.TID 0000.0001) %MON dynstat_vvel_del2            =   9.5792281597071E-05
(PID.TID 0000.0001) %MON dynstat_wvel_max             =   2.4983460302235E-05
(PID.TID 0000.0001) %MON dynstat_wvel_min             =  -1.3724473843482E-05
(PID.TID 0000.0001) %MON dynstat_wvel_mean            =   1.5381208717934E-23
(PID.TID 0000.0001) %MON dynstat_wvel_sd              =   6.4432863527830E-06
(PID.TID 0000.0001) %MON dynstat_wvel_del2            =   4.0156047803214E-07
(PID.TID 0000.0001) %MON dynstat_theta_max            =   1.3343611969674E+01
(PID.TID 0000.0001) %MON dynstat_theta_min            =   6.2538474371661E+00
(PID.TID 0000.0001) %MON dynstat_theta_mean           =   8.4641517272512E+00
(PID.TID 0000.0001) %MON dynstat_theta_sd             =   1.4057981937012E+00
(PID.TID 0000.0001) %MON dynstat_theta_del2           =   7.3979618477595E-03
(PID.TID 0000.0001) %MON dynstat_salt_max             =   1.1997314246676E+01
(PID.TID 0000.0001) %MON dynstat_salt_min             =   1.0464393449846E+01
(PID.TID 0000.0001) %MON dynstat_salt_mean            =   1.1308814038981E+01
(PID.TID 0000.0001) %MON dynstat_salt_sd              =   5.1701947715225E-01
(PID.TID 0000.0001) %MON dynstat_salt_del2            =   5.6651040334032E-04
(PID.TID 0000.0001) %MON advcfl_uvel_max              =   5.1316007980795E-03
(PID.TID 0000.0001) %MON advcfl_vvel_max              =   3.2252216621847E-04
(PID.TID 0000.0001) %MON advcfl_wvel_max              =   2.4668010069486E-03
(PID.TID 0000.0001) %MON advcfl_W_hf_max              =   2.6728383397700E-03
(PID.TID 0000.0001) %MON pe_b_mean                    =   5.2939477694874E-05
(PID.TID 0000.0001) %MON ke_max                       =   1.0165937061794E-02
(PID.TID 0000.0001) %MON ke_mean                      =   2.2938319876349E-04
(PID.TID 0000.0001) %MON ke_vol                       =   5.0981346415358E+14
(PID.TID 0000.0001) // =======================================================
(PID.TID 0000.0001) // End MONITOR dynamic field statistics
(PID.TID 0000.0001) // =======================================================
 Computing Diagnostic #     23  ETAN         Counter:       1   Parms: SM      M1      
 Computing Diagnostic #     25  DETADT2      Counter:       1   Parms: SM      M1      
 Computing Diagnostic #     73  PHIBOT       Counter:       1   Parms: SM      M1      
 Computing Diagnostic #     75  MXLDEPTH     Counter:       1   Parms: SM      M1      
 Computing Diagnostic #    203  GM_BVPcW     Counter:       1   Parms: SU P    M1      
 Computing Diagnostic #    204  GM_BVPcS     Counter:       1   Parms: SV P    M1      
 Computing Diagnostic #    187  SubMesLf     Counter:       1   Parms: SM P    M1      
 Computing Diagnostic #    189  SubMpsiY     Counter:       1   Parms: VV      M1      
           Vector  Mate for  SubMpsiY     Diagnostic #    188  SubMpsiX not enabled
 Computing Diagnostic #     76  DRHODR       Counter:       1   Parms: SM      LR      
 Computing Diagnostic #     64  RHOAnoma     Counter:       1   Parms: SMR     MR      
 Computing Diagnostic #    195  GM_Kwy       Counter:       1   Parms: VM      LR      
           Vector  Mate for  GM_Kwy       Diagnostic #    194  GM_Kwx   not enabled
 Computing Diagnostic #    196  GM_Kwz       Counter:       1   Parms: WM P    LR      
 Computing Diagnostic #    191  GM_Kvy       Counter:       1   Parms: VV P    MR      
           Vector  Mate for  GM_Kvy       Diagnostic #    190  GM_Kux   not enabled
 Computing Diagnostic #     26  THETA        Counter:       1   Parms: SMR     MR      
 Computing Diagnostic #    198  GM_PsiY      Counter:       1   Parms: VV      LR      
           Vector  Mate for  GM_PsiY      Diagnostic #    197  GM_PsiX  not enabled
 Computing Diagnostic #    193  GM_Kvz       Counter:       1   Parms: VV      MR      
           Vector  Mate for  GM_Kvz       Diagnostic #    192  GM_Kuz   not enabled
(PID.TID 0000.0001) %CHECKPOINT        25 ckptA
(PID.TID 0000.0001)   Seconds in section "ALL                    [THE_MODEL_MAIN]":
(PID.TID 0000.0001)           User time:  0.79000000000000004
(PID.TID 0000.0001)         System time:  2.00000000000000004E-002
(PID.TID 0000.0001)     Wall clock time:  0.95680284500122070
(PID.TID 0000.0001)          No. starts:           1
(PID.TID 0000.0001)           No. stops:           1
(PID.TID 0000.0001)   Seconds in section "INITIALISE_FIXED       [THE_MODEL_MAIN]":
(PID.TID 0000.0001)           User time:  2.99999999999999989E-002
(PID.TID 0000.0001)         System time:  1.00000000000000002E-002
(PID.TID 0000.0001)     Wall clock time:  0.10323381423950195
(PID.TID 0000.0001)          No. starts:           1
(PID.TID 0000.0001)           No. stops:           1
(PID.TID 0000.0001)   Seconds in section "THE_MAIN_LOOP          [THE_MODEL_MAIN]":
(PID.TID 0000.0001)           User time:  0.76000000000000001
(PID.TID 0000.0001)         System time:  1.00000000000000002E-002
(PID.TID 0000.0001)     Wall clock time:  0.85351395606994629
(PID.TID 0000.0001)          No. starts:           1
(PID.TID 0000.0001)           No. stops:           1
(PID.TID 0000.0001)   Seconds in section "INITIALISE_VARIA    [THE_MAIN_LOOP]":
(PID.TID 0000.0001)           User time:  1.00000000000000019E-002
(PID.TID 0000.0001)         System time:   0.0000000000000000
(PID.TID 0000.0001)     Wall clock time:  2.23219394683837891E-002
(PID.TID 0000.0001)          No. starts:           1
(PID.TID 0000.0001)           No. stops:           1
(PID.TID 0000.0001)   Seconds in section "MAIN LOOP           [THE_MAIN_LOOP]":
(PID.TID 0000.0001)           User time:  0.75000000000000000
(PID.TID 0000.0001)         System time:  1.00000000000000002E-002
(PID.TID 0000.0001)     Wall clock time:  0.83114504814147949
(PID.TID 0000.0001)          No. starts:           1
(PID.TID 0000.0001)           No. stops:           1
(PID.TID 0000.0001)   Seconds in section "FORWARD_STEP        [THE_MAIN_LOOP]":
(PID.TID 0000.0001)           User time:  0.75000000000000067
(PID.TID 0000.0001)         System time:  9.99999999999999847E-003
(PID.TID 0000.0001)     Wall clock time:  0.83088731765747070
(PID.TID 0000.0001)          No. starts:          25
(PID.TID 0000.0001)           No. stops:          25
(PID.TID 0000.0001)   Seconds in section "DO_STATEVARS_DIAGS  [FORWARD_STEP]":
(PID.TID 0000.0001)           User time:   0.0000000000000000
(PID.TID 0000.0001)         System time:   0.0000000000000000
(PID.TID 0000.0001)     Wall clock time:  1.60384178161621094E-003
(PID.TID 0000.0001)          No. starts:          50
(PID.TID 0000.0001)           No. stops:          50
(PID.TID 0000.0001)   Seconds in section "LOAD_FIELDS_DRIVER  [FORWARD_STEP]":
(PID.TID 0000.0001)           User time:   0.0000000000000000
(PID.TID 0000.0001)         System time:   0.0000000000000000
(PID.TID 0000.0001)     Wall clock time:  7.28130340576171875E-004
(PID.TID 0000.0001)          No. starts:          25
(PID.TID 0000.0001)           No. stops:          25
(PID.TID 0000.0001)   Seconds in section "EXTERNAL_FLDS_LOAD [LOAD_FLDS_DRIVER]":
(PID.TID 0000.0001)           User time:   0.0000000000000000
(PID.TID 0000.0001)         System time:   0.0000000000000000
(PID.TID 0000.0001)     Wall clock time:  2.49147415161132813E-004
(PID.TID 0000.0001)          No. starts:          25
(PID.TID 0000.0001)           No. stops:          25
(PID.TID 0000.0001)   Seconds in section "DO_ATMOSPHERIC_PHYS [FORWARD_STEP]":
(PID.TID 0000.0001)           User time:   0.0000000000000000
(PID.TID 0000.0001)         System time:   0.0000000000000000
(PID.TID 0000.0001)     Wall clock time:  2.46524810791015625E-004
(PID.TID 0000.0001)          No. starts:          25
(PID.TID 0000.0001)           No. stops:          25
(PID.TID 0000.0001)   Seconds in section "DO_OCEANIC_PHYS     [FORWARD_STEP]":
(PID.TID 0000.0001)           User time:  0.16000000000000003
(PID.TID 0000.0001)         System time:   0.0000000000000000
(PID.TID 0000.0001)     Wall clock time:  0.15828514099121094
(PID.TID 0000.0001)          No. starts:          25
(PID.TID 0000.0001)           No. stops:          25
(PID.TID 0000.0001)   Seconds in section "THERMODYNAMICS      [FORWARD_STEP]":
(PID.TID 0000.0001)           User time:  0.22000000000000008
(PID.TID 0000.0001)         System time:   0.0000000000000000
(PID.TID 0000.0001)     Wall clock time:  0.20386815071105957
(PID.TID 0000.0001)          No. starts:          25
(PID.TID 0000.0001)           No. stops:          25
(PID.TID 0000.0001)   Seconds in section "DYNAMICS            [FORWARD_STEP]":
(PID.TID 0000.0001)           User time:  0.23000000000000020
(PID.TID 0000.0001)         System time:   0.0000000000000000
(PID.TID 0000.0001)     Wall clock time:  0.23322987556457520
(PID.TID 0000.0001)          No. starts:          25
(PID.TID 0000.0001)           No. stops:          25
(PID.TID 0000.0001)   Seconds in section "SOLVE_FOR_PRESSURE  [FORWARD_STEP]":
(PID.TID 0000.0001)           User time:  2.00000000000000178E-002
(PID.TID 0000.0001)         System time:   0.0000000000000000
(PID.TID 0000.0001)     Wall clock time:  1.96447372436523438E-002
(PID.TID 0000.0001)          No. starts:          25
(PID.TID 0000.0001)           No. stops:          25
(PID.TID 0000.0001)   Seconds in section "MOM_CORRECTION_STEP [FORWARD_STEP]":
(PID.TID 0000.0001)           User time:   0.0000000000000000
(PID.TID 0000.0001)         System time:   0.0000000000000000
(PID.TID 0000.0001)     Wall clock time:  5.61714172363281250E-003
(PID.TID 0000.0001)          No. starts:          25
(PID.TID 0000.0001)           No. stops:          25
(PID.TID 0000.0001)   Seconds in section "INTEGR_CONTINUITY   [FORWARD_STEP]":
(PID.TID 0000.0001)           User time:   0.0000000000000000
(PID.TID 0000.0001)         System time:   0.0000000000000000
(PID.TID 0000.0001)     Wall clock time:  2.62022018432617188E-003
(PID.TID 0000.0001)          No. starts:          25
(PID.TID 0000.0001)           No. stops:          25
(PID.TID 0000.0001)   Seconds in section "TRC_CORRECTION_STEP [FORWARD_STEP]":
(PID.TID 0000.0001)           User time:  3.00000000000000266E-002
(PID.TID 0000.0001)         System time:   0.0000000000000000
(PID.TID 0000.0001)     Wall clock time:  2.21970081329345703E-002
(PID.TID 0000.0001)          No. starts:          25
(PID.TID 0000.0001)           No. stops:          25
(PID.TID 0000.0001)   Seconds in section "BLOCKING_EXCHANGES  [FORWARD_STEP]":
(PID.TID 0000.0001)           User time:  5.00000000000000444E-002
(PID.TID 0000.0001)         System time:   0.0000000000000000
(PID.TID 0000.0001)     Wall clock time:  6.05318546295166016E-002
(PID.TID 0000.0001)          No. starts:          25
(PID.TID 0000.0001)           No. stops:          25
(PID.TID 0000.0001)   Seconds in section "MONITOR             [FORWARD_STEP]":
(PID.TID 0000.0001)           User time:  3.00000000000000266E-002
(PID.TID 0000.0001)         System time:   0.0000000000000000
(PID.TID 0000.0001)     Wall clock time:  6.49719238281250000E-002
(PID.TID 0000.0001)          No. starts:          25
(PID.TID 0000.0001)           No. stops:          25
(PID.TID 0000.0001)   Seconds in section "DO_THE_MODEL_IO     [FORWARD_STEP]":
(PID.TID 0000.0001)           User time:   0.0000000000000000
(PID.TID 0000.0001)         System time:  9.99999999999999847E-003
(PID.TID 0000.0001)     Wall clock time:  4.77733612060546875E-002
(PID.TID 0000.0001)          No. starts:          25
(PID.TID 0000.0001)           No. stops:          25
(PID.TID 0000.0001)   Seconds in section "DO_WRITE_PICKUP     [FORWARD_STEP]":
(PID.TID 0000.0001)           User time:  1.00000000000000089E-002
(PID.TID 0000.0001)         System time:   0.0000000000000000
(PID.TID 0000.0001)     Wall clock time:  5.68366050720214844E-003
(PID.TID 0000.0001)          No. starts:          25
(PID.TID 0000.0001)           No. stops:          25
(PID.TID 0000.0001) // ======================================================
(PID.TID 0000.0001) // Tile <-> Tile communication statistics
(PID.TID 0000.0001) // ======================================================
(PID.TID 0000.0001) // o Tile number: 000001
(PID.TID 0000.0001) //         No. X exchanges =              0
(PID.TID 0000.0001) //            Max. X spins =              0
(PID.TID 0000.0001) //            Min. X spins =     1000000000
(PID.TID 0000.0001) //          Total. X spins =              0
(PID.TID 0000.0001) //            Avg. X spins =       0.00E+00
(PID.TID 0000.0001) //         No. Y exchanges =              0
(PID.TID 0000.0001) //            Max. Y spins =              0
(PID.TID 0000.0001) //            Min. Y spins =     1000000000
(PID.TID 0000.0001) //          Total. Y spins =              0
(PID.TID 0000.0001) //            Avg. Y spins =       0.00E+00
(PID.TID 0000.0001) // o Tile number: 000002
(PID.TID 0000.0001) //         No. X exchanges =              0
(PID.TID 0000.0001) //            Max. X spins =              0
(PID.TID 0000.0001) //            Min. X spins =     1000000000
(PID.TID 0000.0001) //          Total. X spins =              0
(PID.TID 0000.0001) //            Avg. X spins =       0.00E+00
(PID.TID 0000.0001) //         No. Y exchanges =              0
(PID.TID 0000.0001) //            Max. Y spins =              0
(PID.TID 0000.0001) //            Min. Y spins =     1000000000
(PID.TID 0000.0001) //          Total. Y spins =              0
(PID.TID 0000.0001) //            Avg. Y spins =       0.00E+00
(PID.TID 0000.0001) // o Thread number: 000001
(PID.TID 0000.0001) //            No. barriers =           7378
(PID.TID 0000.0001) //      Max. barrier spins =              1
(PID.TID 0000.0001) //      Min. barrier spins =              1
(PID.TID 0000.0001) //     Total barrier spins =           7378
(PID.TID 0000.0001) //      Avg. barrier spins =       1.00E+00
PROGRAM MAIN: Execution ended Normally
