(PID.TID 0000.0001) 
(PID.TID 0000.0001) // ======================================================
(PID.TID 0000.0001) //                      MITgcm UV
(PID.TID 0000.0001) //                      =========
(PID.TID 0000.0001) // ======================================================
(PID.TID 0000.0001) // execution environment starting up...
(PID.TID 0000.0001) 
(PID.TID 0000.0001) // MITgcmUV version:  checkpoint64c
(PID.TID 0000.0001) // Build user:        jmc
(PID.TID 0000.0001) // Build host:        baudelaire
(PID.TID 0000.0001) // Build date:        Sat Feb  2 22:49:45 EST 2013
(PID.TID 0000.0001) 
(PID.TID 0000.0001) // =======================================================
(PID.TID 0000.0001) // Execution Environment parameter file "eedata"
(PID.TID 0000.0001) // =======================================================
(PID.TID 0000.0001) ># Example "eedata" file
(PID.TID 0000.0001) ># Lines beginning "#" are comments
(PID.TID 0000.0001) ># nTx - No. threads per process in X
(PID.TID 0000.0001) ># nTy - No. threads per process in Y
(PID.TID 0000.0001) > &EEPARMS
(PID.TID 0000.0001) > useCoupler=.TRUE.,
(PID.TID 0000.0001) > useCubedSphereExchange=.TRUE.,
(PID.TID 0000.0001) ># Activate one line below to support 2, 3 or 6 way multi-threading
(PID.TID 0000.0001) > nTx=1,
(PID.TID 0000.0001) >#nTx=2,
(PID.TID 0000.0001) >#nTx=3,
(PID.TID 0000.0001) >#nTx=6,
(PID.TID 0000.0001) > /
(PID.TID 0000.0001) ># Note: Some systems use & as the namelist terminator (as shown here).
(PID.TID 0000.0001) >#       Other systems use a / character.
(PID.TID 0000.0001) 
(PID.TID 0000.0001) // =======================================================
(PID.TID 0000.0001) // Computational Grid Specification ( see files "SIZE.h" )
(PID.TID 0000.0001) //                                  ( and "eedata"       )
(PID.TID 0000.0001) // =======================================================
(PID.TID 0000.0001)      nPx =    1 ; /* No. processes in X */
(PID.TID 0000.0001)      nPy =    1 ; /* No. processes in Y */
(PID.TID 0000.0001)      nSx =    6 ; /* No. tiles in X per process */
(PID.TID 0000.0001)      nSy =    1 ; /* No. tiles in Y per process */
(PID.TID 0000.0001)      sNx =   32 ; /* Tile size in X */
(PID.TID 0000.0001)      sNy =   32 ; /* Tile size in Y */
(PID.TID 0000.0001)      OLx =    2 ; /* Tile overlap distance in X */
(PID.TID 0000.0001)      OLy =    2 ; /* Tile overlap distance in Y */
(PID.TID 0000.0001)      nTx =    1 ; /* No. threads in X per process */
(PID.TID 0000.0001)      nTy =    1 ; /* No. threads in Y per process */
(PID.TID 0000.0001)       Nr =    5 ; /* No. levels in the vertical   */
(PID.TID 0000.0001)       Nx =  192 ; /* Total domain size in X ( = nPx*nSx*sNx ) */
(PID.TID 0000.0001)       Ny =   32 ; /* Total domain size in Y ( = nPy*nSy*sNy ) */
(PID.TID 0000.0001)   nTiles =    6 ; /* Total no. tiles per process ( = nSx*nSy ) */
(PID.TID 0000.0001)   nProcs =    1 ; /* Total no. processes ( = nPx*nPy ) */
(PID.TID 0000.0001) nThreads =    1 ; /* Total no. threads per process ( = nTx*nTy ) */
(PID.TID 0000.0001) usingMPI =    T ; /* Flag used to control whether MPI is in use */
(PID.TID 0000.0001)                   /*  note: To execute a program with MPI calls */
(PID.TID 0000.0001)                   /*  it must be launched appropriately e.g     */
(PID.TID 0000.0001)                   /*  "mpirun -np 64 ......"                    */
(PID.TID 0000.0001) useCoupler=    T ;/* Flag used to control communications with   */
(PID.TID 0000.0001)                   /*  other model components, through a coupler */
(PID.TID 0000.0001) debugMode =    F ; /* print debug msg. (sequence of S/R calls)  */
(PID.TID 0000.0001) printMapIncludesZeros=    F ; /* print zeros in Std.Output maps */
(PID.TID 0000.0001) maxLengthPrt1D=   65 /* maxLength of 1D array printed to StdOut */
(PID.TID 0000.0001) 
(PID.TID 0000.0001) ======= Starting MPI parallel Run =========
(PID.TID 0000.0001)  My Processor Name (len: 10 ) = baudelaire
(PID.TID 0000.0001)  Located at (  0,  0) on processor grid (0:  0,0:  0)
(PID.TID 0000.0001)  Origin at  (     1,     1) on global grid (1:   192,1:    32)
(PID.TID 0000.0001)  North neighbor = processor 0000
(PID.TID 0000.0001)  South neighbor = processor 0000
(PID.TID 0000.0001)   East neighbor = processor 0000
(PID.TID 0000.0001)   West neighbor = processor 0000
(PID.TID 0000.0001) // ======================================================
(PID.TID 0000.0001) // Mapping of tiles to threads
(PID.TID 0000.0001) // ======================================================
(PID.TID 0000.0001) // -o- Thread   1, tiles (   1:   6,   1:   1)
(PID.TID 0000.0001) 
(PID.TID 0000.0001) W2_READPARMS: file data.exch2 not found
(PID.TID 0000.0001) => use W2_EXCH2 default: regular 6-facets Cube
(PID.TID 0000.0001) W2_useE2ioLayOut=    T ;/* T: use Exch2 glob IO map; F: use model default */
(PID.TID 0000.0001) W2_mapIO        =  -1 ; /* select option for Exch2 global-IO map */
(PID.TID 0000.0001) W2_printMsg     =  -1 ; /* select option for printing information */
(PID.TID 0000.0001) ===== Start setting W2 TOPOLOGY:
(PID.TID 0000.0001)  write to log-file: w2_tile_topology.0000.log
(PID.TID 0000.0001) =====       setting W2 TOPOLOGY: Done
(PID.TID 0000.0001) 
(PID.TID 0000.0001)  INI_PARMS: opening model parameter file "data"
(PID.TID 0000.0001)  OPEN_COPY_DATA_FILE: opening file data
(PID.TID 0000.0001) // =======================================================
(PID.TID 0000.0001) // Parameter file "data"
(PID.TID 0000.0001) // =======================================================
(PID.TID 0000.0001) ># ====================
(PID.TID 0000.0001) ># | Model parameters |
(PID.TID 0000.0001) ># ====================
(PID.TID 0000.0001) >#
(PID.TID 0000.0001) ># Continuous equation parameters
(PID.TID 0000.0001) > &PARM01
(PID.TID 0000.0001) > tRef=289.6, 298.1, 314.5, 335.8, 437.4,
(PID.TID 0000.0001) > sRef=5*0.,
(PID.TID 0000.0001) > no_slip_sides=.FALSE.,
(PID.TID 0000.0001) > no_slip_bottom=.FALSE.,
(PID.TID 0000.0001) > buoyancyRelation='ATMOSPHERIC',
(PID.TID 0000.0001) > eosType='IDEALG',
(PID.TID 0000.0001) > atm_Rq=0.6078E-3,
(PID.TID 0000.0001) > Integr_GeoPot=2,
(PID.TID 0000.0001) > selectFindRoSurf=1,
(PID.TID 0000.0001) > gravity=9.81,
(PID.TID 0000.0001) >#rhoConst=1.0,
(PID.TID 0000.0001) > rhoConstFresh=1000.,
(PID.TID 0000.0001) > implicitFreeSurface=.TRUE.,
(PID.TID 0000.0001) > exactConserv=.TRUE.,
(PID.TID 0000.0001) > select_rStar=2,
(PID.TID 0000.0001) > nonlinFreeSurf=4,
(PID.TID 0000.0001) > hFacInf=0.2,
(PID.TID 0000.0001) > hFacSup=2.0,
(PID.TID 0000.0001) > uniformLin_PhiSurf=.FALSE.,
(PID.TID 0000.0001) > hFacMin=0.2,
(PID.TID 0000.0001) > saltAdvScheme=3,
(PID.TID 0000.0001) > vectorInvariantMomentum=.TRUE.,
(PID.TID 0000.0001) > useJamartWetPoints=.TRUE.,
(PID.TID 0000.0001) > staggerTimeStep=.TRUE.,
(PID.TID 0000.0001) > readBinaryPrec=64,
(PID.TID 0000.0001) > writeBinaryPrec=64,
(PID.TID 0000.0001) > /
(PID.TID 0000.0001) >
(PID.TID 0000.0001) ># Elliptic solver parameters
(PID.TID 0000.0001) > &PARM02
(PID.TID 0000.0001) > cg2dMaxIters=200,
(PID.TID 0000.0001) >#cg2dTargetResidual=1.E-12,
(PID.TID 0000.0001) > cg2dTargetResWunit=1.E-17,
(PID.TID 0000.0001) > /
(PID.TID 0000.0001) >
(PID.TID 0000.0001) ># Time stepping parameters
(PID.TID 0000.0001) > &PARM03
(PID.TID 0000.0001) > nIter0=0,
(PID.TID 0000.0001) > nTimeSteps=40,
(PID.TID 0000.0001) ># 10yr:
(PID.TID 0000.0001) >#endTime=311040000.,
(PID.TID 0000.0001) > deltaT=450.0,
(PID.TID 0000.0001) > abEps=0.1,
(PID.TID 0000.0001) > forcing_In_AB=.FALSE.,
(PID.TID 0000.0001) > cAdjFreq=0.,
(PID.TID 0000.0001) > pChkptFreq=2592000.,
(PID.TID 0000.0001) > taveFreq=2592000.,
(PID.TID 0000.0001) > dumpFreq=2592000.,
(PID.TID 0000.0001) > monitorFreq=86400.,
(PID.TID 0000.0001) > monitorFreq=1.,
(PID.TID 0000.0001) > /
(PID.TID 0000.0001) >
(PID.TID 0000.0001) ># Gridding parameters
(PID.TID 0000.0001) > &PARM04
(PID.TID 0000.0001) > usingCurvilinearGrid=.TRUE.,
(PID.TID 0000.0001) > horizGridFile='grid_cs32',
(PID.TID 0000.0001) > radius_fromHorizGrid=6370.E3,
(PID.TID 0000.0001) > delR=100.E2, 250.E2, 300.E2, 200.E2, 150.E2,
(PID.TID 0000.0001) > Ro_SeaLevel=1.E5,
(PID.TID 0000.0001) > /
(PID.TID 0000.0001) >
(PID.TID 0000.0001) ># Input datasets
(PID.TID 0000.0001) > &PARM05
(PID.TID 0000.0001) > topoFile='topo.cpl_FM.bin',
(PID.TID 0000.0001) > /
(PID.TID 0000.0001) 
(PID.TID 0000.0001)  INI_PARMS ; starts to read PARM01
(PID.TID 0000.0001)  INI_PARMS ; read PARM01 : OK
(PID.TID 0000.0001)  INI_PARMS ; starts to read PARM02
(PID.TID 0000.0001)  INI_PARMS ; read PARM02 : OK
(PID.TID 0000.0001)  INI_PARMS ; starts to read PARM03
(PID.TID 0000.0001)  INI_PARMS ; read PARM03 : OK
(PID.TID 0000.0001)  INI_PARMS ; starts to read PARM04
(PID.TID 0000.0001)  INI_PARMS ; read PARM04 : OK
(PID.TID 0000.0001)  INI_PARMS ; starts to read PARM05
(PID.TID 0000.0001)  INI_PARMS ; read PARM05 : OK
(PID.TID 0000.0001)  INI_PARMS: finished reading file "data"
(PID.TID 0000.0001)  PACKAGES_BOOT: opening data.pkg
(PID.TID 0000.0001)  OPEN_COPY_DATA_FILE: opening file data.pkg
(PID.TID 0000.0001) // =======================================================
(PID.TID 0000.0001) // Parameter file "data.pkg"
(PID.TID 0000.0001) // =======================================================
(PID.TID 0000.0001) ># Packages
(PID.TID 0000.0001) >#     useAIM  :: use Atmospheric Intermediate complexity Model
(PID.TID 0000.0001) >#     useLand :: use (simple) Land package to compute surf. BC over land
(PID.TID 0000.0001) >#   useThSIce :: use Therm. SeaIce package (+slab ocean)
(PID.TID 0000.0001) > &PACKAGES
(PID.TID 0000.0001) > useAIM=.TRUE.,
(PID.TID 0000.0001) > useLand=.TRUE.,
(PID.TID 0000.0001) > useThSIce=.TRUE.,
(PID.TID 0000.0001) > useSHAP_FILT=.TRUE.,
(PID.TID 0000.0001) >#useMNC=.TRUE.,
(PID.TID 0000.0001) > /
(PID.TID 0000.0001) 
(PID.TID 0000.0001)  PACKAGES_BOOT: finished reading data.pkg
(PID.TID 0000.0001)  SHAP_FILT_READPARMS: opening data.shap
(PID.TID 0000.0001)  OPEN_COPY_DATA_FILE: opening file data.shap
(PID.TID 0000.0001) // =======================================================
(PID.TID 0000.0001) // Parameter file "data.shap"
(PID.TID 0000.0001) // =======================================================
(PID.TID 0000.0001) ># Shapiro Filter parameters
(PID.TID 0000.0001) > &SHAP_PARM01
(PID.TID 0000.0001) > shap_filt_uvStar=.FALSE.,
(PID.TID 0000.0001) > shap_filt_TrStagg=.TRUE.,
(PID.TID 0000.0001) > Shap_funct=2,
(PID.TID 0000.0001) > nShapT=4,
(PID.TID 0000.0001) > nShapUV=4,
(PID.TID 0000.0001) > nShapTrPhys=1,
(PID.TID 0000.0001) > nShapUVPhys=0,
(PID.TID 0000.0001) > Shap_TrLength=140000.,
(PID.TID 0000.0001) >#Shap_uvLength=140000.,
(PID.TID 0000.0001) > Shap_Trtau=5400.,
(PID.TID 0000.0001) > Shap_uvtau=1800.,
(PID.TID 0000.0001) >#Shap_diagFreq=2592000.,
(PID.TID 0000.0001) > /
(PID.TID 0000.0001) 
(PID.TID 0000.0001)  SHAP_FILT_READPARMS: finished reading data.shap
(PID.TID 0000.0001) Shap_funct =   /* select Shapiro filter function */
(PID.TID 0000.0001)                       2
(PID.TID 0000.0001)     ;
(PID.TID 0000.0001) nShapT =   /* power of Shapiro filter for Temperat */
(PID.TID 0000.0001)                       4
(PID.TID 0000.0001)     ;
(PID.TID 0000.0001) nShapS =   /* power of Shapiro filter for Salinity */
(PID.TID 0000.0001)                       4
(PID.TID 0000.0001)     ;
(PID.TID 0000.0001) nShapUV =   /* power of Shapiro filter for momentum */
(PID.TID 0000.0001)                       4
(PID.TID 0000.0001)     ;
(PID.TID 0000.0001) shap_filt_uvStar = /* apply filter before Press. Solver */
(PID.TID 0000.0001)                   F
(PID.TID 0000.0001)     ;
(PID.TID 0000.0001) shap_filt_TrStagg = /* filter T,S before calc PhiHyd (staggerTimeStep) */
(PID.TID 0000.0001)                   T
(PID.TID 0000.0001)     ;
(PID.TID 0000.0001) Shap_alwaysExchUV = /* always exch(U,V)    nShapUV times*/
(PID.TID 0000.0001)                   F
(PID.TID 0000.0001)     ;
(PID.TID 0000.0001) Shap_alwaysExchTr = /* always exch(Tracer) nShapTr times*/
(PID.TID 0000.0001)                   F
(PID.TID 0000.0001)     ;
(PID.TID 0000.0001) nShapTrPhys =   /* power of physical-space filter (Tracer) */
(PID.TID 0000.0001)                       1
(PID.TID 0000.0001)     ;
(PID.TID 0000.0001) nShapUVPhys =   /* power of physical-space filter (Momentum) */
(PID.TID 0000.0001)                       0
(PID.TID 0000.0001)     ;
(PID.TID 0000.0001) Shap_Trtau =   /* time scale of Shapiro filter (Tracer) */
(PID.TID 0000.0001)                 5.400000000000000E+03
(PID.TID 0000.0001)     ;
(PID.TID 0000.0001) Shap_TrLength =   /* Length scale of Shapiro filter (Tracer) */
(PID.TID 0000.0001)                 1.400000000000000E+05
(PID.TID 0000.0001)     ;
(PID.TID 0000.0001) Shap_uvtau =   /* time scale of Shapiro filter (Momentum) */
(PID.TID 0000.0001)                 1.800000000000000E+03
(PID.TID 0000.0001)     ;
(PID.TID 0000.0001) Shap_uvLength =   /* Length scale of Shapiro filter (Momentum) */
(PID.TID 0000.0001)                 0.000000000000000E+00
(PID.TID 0000.0001)     ;
(PID.TID 0000.0001) Shap_noSlip =  /* No-slip parameter (0=Free-slip ; 1=No-slip)*/
(PID.TID 0000.0001)                 0.000000000000000E+00
(PID.TID 0000.0001)     ;
(PID.TID 0000.0001) Shap_diagFreq =   /* Frequency^-1 for diagnostic output (s)*/
(PID.TID 0000.0001)                 0.000000000000000E+00
(PID.TID 0000.0001)     ;
(PID.TID 0000.0001)  THSICE_READPARMS: opening data.ice
(PID.TID 0000.0001)  OPEN_COPY_DATA_FILE: opening file data.ice
(PID.TID 0000.0001) // =======================================================
(PID.TID 0000.0001) // Parameter file "data.ice"
(PID.TID 0000.0001) // =======================================================
(PID.TID 0000.0001) > &THSICE_CONST
(PID.TID 0000.0001) > Tf0kel  = 273.15,
(PID.TID 0000.0001) > rhosw   = 1030.,
(PID.TID 0000.0001) >#- with LANL albedo:
(PID.TID 0000.0001) >#albWarmSnow= 0.75,
(PID.TID 0000.0001) > iceMaskMin = 0.01,
(PID.TID 0000.0001) > hThinIce   = 0.1,
(PID.TID 0000.0001) > hiMax      = 10.,
(PID.TID 0000.0001) > hsMax      = 10.,
(PID.TID 0000.0001) >#albIceMax  = 0.7,
(PID.TID 0000.0001) >#albIceMin  = 0.7,
(PID.TID 0000.0001) > /
(PID.TID 0000.0001) >
(PID.TID 0000.0001) > &THSICE_PARM01
(PID.TID 0000.0001) >#startIceModel=1,
(PID.TID 0000.0001) >#stepFwd_oceMxL=.TRUE.,
(PID.TID 0000.0001) > ocean_deltaT=3600.,
(PID.TID 0000.0001) >#tauRelax_MxL=5184000.,
(PID.TID 0000.0001) >#thSIceAdvScheme=1,
(PID.TID 0000.0001) >#thSIce_diffK   =800.,
(PID.TID 0000.0001) > stressReduction=0.,
(PID.TID 0000.0001) >#thSIce_taveFreq=2592000.,
(PID.TID 0000.0001) > thSIce_diagFreq=5184000.,
(PID.TID 0000.0001) >#thSIce_monFreq=864000.,
(PID.TID 0000.0001) >#thSIce_diagFreq=0.,
(PID.TID 0000.0001) > /
(PID.TID 0000.0001) >
(PID.TID 0000.0001) 
(PID.TID 0000.0001)  THSICE_READPARMS: read THSICE_CONST
(PID.TID 0000.0001)  THSICE_READPARMS: read THSICE_PARM01
 ThSI:       rhos        =  3.3000000000000E+02
 ThSI:       rhoi        =  9.0000000000000E+02
 ThSI:       rhosw       =  1.0300000000000E+03
 ThSI:       rhofw       =  1.0000000000000E+03
 ThSI:       floodFac    =  3.9393939393939E-01
 ThSI:       cpIce       =  2.1060000000000E+03
 ThSI:       cpWater     =  3.9940000000000E+03
 ThSI:       kIce        =  2.0300000000000E+00
 ThSI:       kSnow       =  3.0000000000000E-01
 ThSI:       bMeltCoef   =  6.0000000000000E-03
 ThSI:       Lfresh      =  3.3400000000000E+05
 ThSI:       qsnow       =  3.3400000000000E+05
 ThSI:       albColdSnow =  8.5000000000000E-01
 ThSI:       albWarmSnow =  7.0000000000000E-01
 ThSI:       tempSnowAlb = -1.0000000000000E+01
 ThSI:       albOldSnow  =  5.5000000000000E-01
 ThSI:       hNewSnowAge =  2.0000000000000E-03
 ThSI:       snowAgTime  =  4.3200000000000E+06
 ThSI:       albIceMax   =  6.5000000000000E-01
 ThSI:       albIceMin   =  2.0000000000000E-01
 ThSI:       hAlbIce     =  5.0000000000000E-01
 ThSI:       hAlbSnow    =  3.0000000000000E-01
 ThSI:       i0swFrac    =  3.0000000000000E-01
 ThSI:       ksolar      =  1.5000000000000E+00
 ThSI:       dhSnowLin   =  0.0000000000000E+00
 ThSI:       saltIce     =  4.0000000000000E+00
 ThSI:       S_winton    =  1.0000000000000E+00
 ThSI:       mu_Tf       =  5.4000000000000E-02
 ThSI:       Tf0kel      =  2.7315000000000E+02
 ThSI:       Tmlt1       = -5.4000000000000E-02
 ThSI:       Terrmax     =  5.0000000000000E-01
 ThSI:       nitMaxTsf   =        20
 ThSI:       hIceMin     =  1.0000000000000E-02
 ThSI:       hiMax       =  1.0000000000000E+01
 ThSI:       hsMax       =  1.0000000000000E+01
 ThSI:       iceMaskMax  =  1.0000000000000E+00
 ThSI:       iceMaskMin  =  1.0000000000000E-02
 ThSI:       fracEnMelt  =  4.0000000000000E-01
 ThSI:       fracEnFreez =  0.0000000000000E+00
 ThSI:       hThinIce    =  1.0000000000000E-01
 ThSI:       hThickIce   =  2.5000000000000E+00
 ThSI:       hNewIceMax  =  1.0000000000000E+01
 ThSI: stressReduction   =  0.0000000000000E+00
 ThSI: thSIce_skipThermo =         F
 ThSI: thSIceAdvScheme   =         0
 ThSI: thSIceBalanceAtmFW=         0
 ThSI: thSIce_diffK      =  0.0000000000000E+00
 ThSI: thSIce_deltaT     =  4.5000000000000E+02
 ThSI: ocean_deltaT      =  3.6000000000000E+03
 ThSI: stepFwd_oceMxL    =         F
 ThSI: tauRelax_MxL      =  0.0000000000000E+00
 ThSI: tauRelax_MxL_salt =  0.0000000000000E+00
 ThSI: hMxL_default      =  5.0000000000000E+01
 ThSI: sMxL_default      =  3.5000000000000E+01
 ThSI: vMxL_default      =  5.0000000000000E-02
 ThSI: thSIce_taveFreq   =  2.5920000000000E+06
 ThSI: thSIce_diagFreq   =  5.1840000000000E+06
 ThSI: thSIce_monFreq    =  1.0000000000000E+00
 ThSI: startIceModel     =         0
(PID.TID 0000.0001)  CPL_READPARMS: opening data.cpl
(PID.TID 0000.0001)  OPEN_COPY_DATA_FILE: opening file data.cpl
(PID.TID 0000.0001) // =======================================================
(PID.TID 0000.0001) // Parameter file "data.cpl"
(PID.TID 0000.0001) // =======================================================
(PID.TID 0000.0001) ># Coupling package parameters, ATM component:
(PID.TID 0000.0001) ># cpl_earlyExpImpCall :: call coupler early in the time stepping call sequence
(PID.TID 0000.0001) >#     cpl_oldPickup  :: restart from an old pickup (= until ckpt 59h)
(PID.TID 0000.0001) >#     useImportMxlD  :: True => use Imported Mix.Layer Detph from coupler
(PID.TID 0000.0001) >#     useImportSST   :: True => use the Imported SST from coupler
(PID.TID 0000.0001) >#     useImportSSS   :: True => use the Imported SSS from coupler
(PID.TID 0000.0001) >#     useImportVsq   :: True => use the Imported Surf. velocity^2
(PID.TID 0000.0001) >#     cpl_atmSendFrq :: Frequency^-1 for sending data to coupler (s)
(PID.TID 0000.0001) > &CPL_ATM_PARAM
(PID.TID 0000.0001) ># cpl_earlyExpImpCall=.FALSE.,
(PID.TID 0000.0001) ># cpl_oldPickup=.TRUE.,
(PID.TID 0000.0001) ># useImportMxlD=.FALSE.,
(PID.TID 0000.0001) ># useImportSST =.FALSE.,
(PID.TID 0000.0001) ># useImportSSS =.FALSE.,
(PID.TID 0000.0001) ># useImportVsq =.FALSE.,
(PID.TID 0000.0001) >  cpl_atmSendFrq=3600.,
(PID.TID 0000.0001) > /
(PID.TID 0000.0001) >
(PID.TID 0000.0001) 
(PID.TID 0000.0001)  CPL_READPARMS: finished reading data.cpl
(PID.TID 0000.0001) 
(PID.TID 0000.0001) // ===================================
(PID.TID 0000.0001) // Coupling package parameters :
(PID.TID 0000.0001) // ===================================
(PID.TID 0000.0001) cpl_earlyExpImpCall= /* call coupler early in the time-stepping */
(PID.TID 0000.0001)                   T
(PID.TID 0000.0001)     ;
(PID.TID 0000.0001) cpl_oldPickup = /* restart from old pickup on/off flag */
(PID.TID 0000.0001)                   F
(PID.TID 0000.0001)     ;
(PID.TID 0000.0001) useImportMxlD = /* use Imported MxL. Depth from Coupler flag */
(PID.TID 0000.0001)                   T
(PID.TID 0000.0001)     ;
(PID.TID 0000.0001) useImportSST = /* use Imported SST from Coupler on/off flag */
(PID.TID 0000.0001)                   T
(PID.TID 0000.0001)     ;
(PID.TID 0000.0001) useImportSSS = /* use Imported SSS from Coupler on/off flag */
(PID.TID 0000.0001)                   T
(PID.TID 0000.0001)     ;
(PID.TID 0000.0001) useImportVsq = /* use Imported surf.Vel^2 from Coupler flag */
(PID.TID 0000.0001)                   T
(PID.TID 0000.0001)     ;
(PID.TID 0000.0001) useImportFlxCO2 = /* use Imported air-sea CO2 flux from Coupler flag */
(PID.TID 0000.0001)                   F
(PID.TID 0000.0001)     ;
(PID.TID 0000.0001) cpl_atmSendFrq = /* Frequency^o-1 for sending data to Coupler (s) */
(PID.TID 0000.0001)                 3.600000000000000E+03
(PID.TID 0000.0001)     ;
(PID.TID 0000.0001) cplSendFrq_iter =   /* send data to coupler every "cplSendFrq" iter */
(PID.TID 0000.0001)                       8
(PID.TID 0000.0001)     ;
(PID.TID 0000.0001) SET_PARMS: done
(PID.TID 0000.0001) Enter INI_VERTICAL_GRID: setInterFDr=    T ; setCenterDr=    F
(PID.TID 0000.0001) tile:   1 ; Read from file grid_cs32.face001.bin
(PID.TID 0000.0001)   => xC yC dxF dyF rA xG yG dxV dyU rAz dxC dyC rAw rAs dxG dyG AngleCS AngleSN
(PID.TID 0000.0001) tile:   2 ; Read from file grid_cs32.face002.bin
(PID.TID 0000.0001)   => xC yC dxF dyF rA xG yG dxV dyU rAz dxC dyC rAw rAs dxG dyG AngleCS AngleSN
(PID.TID 0000.0001) tile:   3 ; Read from file grid_cs32.face003.bin
(PID.TID 0000.0001)   => xC yC dxF dyF rA xG yG dxV dyU rAz dxC dyC rAw rAs dxG dyG AngleCS AngleSN
(PID.TID 0000.0001) tile:   4 ; Read from file grid_cs32.face004.bin
(PID.TID 0000.0001)   => xC yC dxF dyF rA xG yG dxV dyU rAz dxC dyC rAw rAs dxG dyG AngleCS AngleSN
(PID.TID 0000.0001) tile:   5 ; Read from file grid_cs32.face005.bin
(PID.TID 0000.0001)   => xC yC dxF dyF rA xG yG dxV dyU rAz dxC dyC rAw rAs dxG dyG AngleCS AngleSN
(PID.TID 0000.0001) tile:   6 ; Read from file grid_cs32.face006.bin
(PID.TID 0000.0001)   => xC yC dxF dyF rA xG yG dxV dyU rAz dxC dyC rAw rAs dxG dyG AngleCS AngleSN
(PID.TID 0000.0001) %MON XC_max                       =   1.7854351589505E+02
(PID.TID 0000.0001) %MON XC_min                       =  -1.7854351589505E+02
(PID.TID 0000.0001) %MON XC_mean                      =  -4.6999441375798E-15
(PID.TID 0000.0001) %MON XC_sd                        =   1.0355545336287E+02
(PID.TID 0000.0001) %MON XG_max                       =   1.8000000000000E+02
(PID.TID 0000.0001) %MON XG_min                       =  -1.7708797161002E+02
(PID.TID 0000.0001) %MON XG_mean                      =   1.8603515625000E+00
(PID.TID 0000.0001) %MON XG_sd                        =   1.0357130300504E+02
(PID.TID 0000.0001) %MON DXC_max                      =   3.2375185836900E+05
(PID.TID 0000.0001) %MON DXC_min                      =   1.1142031410131E+05
(PID.TID 0000.0001) %MON DXC_mean                     =   2.8605689051214E+05
(PID.TID 0000.0001) %MON DXC_sd                       =   3.4042087138252E+04
(PID.TID 0000.0001) %MON DXF_max                      =   3.2369947500827E+05
(PID.TID 0000.0001) %MON DXF_min                      =   1.2020820513318E+05
(PID.TID 0000.0001) %MON DXF_mean                     =   2.8605437324820E+05
(PID.TID 0000.0001) %MON DXF_sd                       =   3.4050524252539E+04
(PID.TID 0000.0001) %MON DXG_max                      =   3.2375195872773E+05
(PID.TID 0000.0001) %MON DXG_min                      =   1.0098378008791E+05
(PID.TID 0000.0001) %MON DXG_mean                     =   2.8603818508931E+05
(PID.TID 0000.0001) %MON DXG_sd                       =   3.4140406908005E+04
(PID.TID 0000.0001) %MON DXV_max                      =   3.2380418162750E+05
(PID.TID 0000.0001) %MON DXV_min                      =   8.0152299824136E+04
(PID.TID 0000.0001) %MON DXV_mean                     =   2.8603970633619E+05
(PID.TID 0000.0001) %MON DXV_sd                       =   3.4145142117723E+04
(PID.TID 0000.0001) %MON YC_max                       =   8.7940663871962E+01
(PID.TID 0000.0001) %MON YC_min                       =  -8.7940663871962E+01
(PID.TID 0000.0001) %MON YC_mean                      =   0.0000000000000E+00
(PID.TID 0000.0001) %MON YC_sd                        =   3.8676242969072E+01
(PID.TID 0000.0001) %MON YG_max                       =   9.0000000000000E+01
(PID.TID 0000.0001) %MON YG_min                       =  -9.0000000000000E+01
(PID.TID 0000.0001) %MON YG_mean                      =  -1.1842378929335E-15
(PID.TID 0000.0001) %MON YG_sd                        =   3.8676895860710E+01
(PID.TID 0000.0001) %MON DYC_max                      =   3.2375185836900E+05
(PID.TID 0000.0001) %MON DYC_min                      =   1.1142031410131E+05
(PID.TID 0000.0001) %MON DYC_mean                     =   2.8605689051214E+05
(PID.TID 0000.0001) %MON DYC_sd                       =   3.4042087138252E+04
(PID.TID 0000.0001) %MON DYF_max                      =   3.2369947500827E+05
(PID.TID 0000.0001) %MON DYF_min                      =   1.2020820513318E+05
(PID.TID 0000.0001) %MON DYF_mean                     =   2.8605437324820E+05
(PID.TID 0000.0001) %MON DYF_sd                       =   3.4050524252539E+04
(PID.TID 0000.0001) %MON DYG_max                      =   3.2375195872773E+05
(PID.TID 0000.0001) %MON DYG_min                      =   1.0098378008791E+05
(PID.TID 0000.0001) %MON DYG_mean                     =   2.8603818508931E+05
(PID.TID 0000.0001) %MON DYG_sd                       =   3.4140406908005E+04
(PID.TID 0000.0001) %MON DYU_max                      =   3.2380418162750E+05
(PID.TID 0000.0001) %MON DYU_min                      =   8.0152299824136E+04
(PID.TID 0000.0001) %MON DYU_mean                     =   2.8603970633619E+05
(PID.TID 0000.0001) %MON DYU_sd                       =   3.4145142117723E+04
(PID.TID 0000.0001) %MON RA_max                       =   1.0479260248419E+11
(PID.TID 0000.0001) %MON RA_min                       =   1.4019007022556E+10
(PID.TID 0000.0001) %MON RA_mean                      =   8.2992246709265E+10
(PID.TID 0000.0001) %MON RA_sd                        =   1.7509089299457E+10
(PID.TID 0000.0001) %MON RAW_max                      =   1.0480965274559E+11
(PID.TID 0000.0001) %MON RAW_min                      =   1.2166903467143E+10
(PID.TID 0000.0001) %MON RAW_mean                     =   8.2992246709235E+10
(PID.TID 0000.0001) %MON RAW_sd                       =   1.7481917919656E+10
(PID.TID 0000.0001) %MON RAS_max                      =   1.0480965274559E+11
(PID.TID 0000.0001) %MON RAS_min                      =   1.2166903467143E+10
(PID.TID 0000.0001) %MON RAS_mean                     =   8.2992246709235E+10
(PID.TID 0000.0001) %MON RAS_sd                       =   1.7481917919656E+10
(PID.TID 0000.0001) %MON RAZ_max                      =   1.0484349334619E+11
(PID.TID 0000.0001) %MON RAZ_min                      =   8.8317900612505E+09
(PID.TID 0000.0001) %MON RAZ_mean                     =   8.2992246709235E+10
(PID.TID 0000.0001) %MON RAZ_sd                       =   1.7482297311044E+10
(PID.TID 0000.0001) %MON AngleCS_max                  =   9.9999994756719E-01
(PID.TID 0000.0001) %MON AngleCS_min                  =  -9.9968286884824E-01
(PID.TID 0000.0001) %MON AngleCS_mean                 =   3.3078922539000E-01
(PID.TID 0000.0001) %MON AngleCS_sd                   =   6.2496278958502E-01
(PID.TID 0000.0001) %MON AngleSN_max                  =   9.9968286884824E-01
(PID.TID 0000.0001) %MON AngleSN_min                  =  -9.9999994756719E-01
(PID.TID 0000.0001) %MON AngleSN_mean                 =  -3.3078922539000E-01
(PID.TID 0000.0001) %MON AngleSN_sd                   =   6.2496278958502E-01
(PID.TID 0000.0001) 
(PID.TID 0000.0001) SET_REF_STATE: PhiRef/g [m] at level Center (integer)
(PID.TID 0000.0001)                      and at level Interface (half-int.) :
(PID.TID 0000.0001)  K=  0.5  ;  r=       100000.0  ;  phiRef/g=        0.000
(PID.TID 0000.0001)  K=  1.0  ;  r=        95000.0  ;  phiRef/g=      431.199
(PID.TID 0000.0001)  K=  1.5  ;  r=        90000.0  ;  phiRef/g=     1256.487
(PID.TID 0000.0001)  K=  2.0  ;  r=        77500.0  ;  phiRef/g=     2105.998
(PID.TID 0000.0001)  K=  2.5  ;  r=        65000.0  ;  phiRef/g=     3775.246
(PID.TID 0000.0001)  K=  3.0  ;  r=        50000.0  ;  phiRef/g=     5536.327
(PID.TID 0000.0001)  K=  3.5  ;  r=        35000.0  ;  phiRef/g=     7908.298
(PID.TID 0000.0001)  K=  4.0  ;  r=        25000.0  ;  phiRef/g=    10440.915
(PID.TID 0000.0001)  K=  4.5  ;  r=        15000.0  ;  phiRef/g=    13806.721
(PID.TID 0000.0001)  K=  5.0  ;  r=         7500.0  ;  phiRef/g=    18190.889
(PID.TID 0000.0001)  K=  5.5  ;  r=            0.0  ;  phiRef/g=    39547.504
(PID.TID 0000.0001)  MDS_READ_FIELD: opening global file: topo.cpl_FM.bin
(PID.TID 0000.0001) // =======================================================
(PID.TID 0000.0001) // Field Model R_low (ini_masks_etc)
(PID.TID 0000.0001) // CMIN =          1.000000000000000E+32
(PID.TID 0000.0001) // CMAX =         -1.000000000000000E+32
(PID.TID 0000.0001) // CINT =          0.000000000000000E+00
(PID.TID 0000.0001) // SYMBOLS (CMIN->CMAX): -abcdefghijklmnopqrstuvwxyz+
(PID.TID 0000.0001) //                  0.0: .
(PID.TID 0000.0001) // RANGE I (Lo:Hi:Step):(    -1:   194:     1)
(PID.TID 0000.0001) // RANGE J (Lo:Hi:Step):(    34:    -1:    -1)
(PID.TID 0000.0001) // RANGE K (Lo:Hi:Step):(   1:   1:   1)
(PID.TID 0000.0001) // =======================================================
(PID.TID 0000.0001) // =======================================================
(PID.TID 0000.0001) // END OF FIELD                                          =
(PID.TID 0000.0001) // =======================================================
(PID.TID 0000.0001) 
(PID.TID 0000.0001) // =======================================================
(PID.TID 0000.0001) // Field Model Ro_surf (ini_masks_etc)
(PID.TID 0000.0001) // CMIN =          4.905667583685931E+04
(PID.TID 0000.0001) // CMAX =          1.000000000000000E+05
(PID.TID 0000.0001) // CINT =          1.886789783820026E+03
(PID.TID 0000.0001) // SYMBOLS (CMIN->CMAX): -abcdefghijklmnopqrstuvwxyz+
(PID.TID 0000.0001) //                  0.0: .
(PID.TID 0000.0001) // RANGE I (Lo:Hi:Step):(    -1:   194:     1)
(PID.TID 0000.0001) // RANGE J (Lo:Hi:Step):(    34:    -1:    -1)
(PID.TID 0000.0001) // RANGE K (Lo:Hi:Step):(   1:   1:   1)
(PID.TID 0000.0001) // =======================================================
(PID.TID 0000.0001) K =   1
(PID.TID 0000.0001) //                I=8       I=18      I=28      I=34      I=44      I=54      I=64      I=70      I=80      I=90      I=96      I=106     I=116     I=126     I=132     I=142     I=152     I=162     I=168     I=178     I=188
(PID.TID 0000.0001) // |--J--|101234567|901234567|901234567|901234123|567890123|567890123|567890123|563456789|123456789|123456789|123456785|789012345|789012345|789012345|789078901|345678901|345678901|345678901|901234567|901234567|901234567|901234
(PID.TID 0000.0001) //     34 ++++++++++++++++++zxwwwwwy++++nmnounnounny+zzzzzxxwwrnmmmqsuvvxxw+++++++++++++++++++++xxyzyxwtmlnnoy+++++++++++++++++++++++++++++++++++++++++++++++++++++++++++++++yxxwwxy++++++++++++++++++++++++++++++++++++++++++++++
(PID.TID 0000.0001) //     33 ++++++++++++++++++wttvwww++ywqstuuuouuuooy+yyzzyxwwqoomlmqtvutwyy++++++++++++++++++++xxxyyyxwunmnopx+++++++++++++++++++++++++++++++++++++++++++++++++++++++++++++++zyxwwwwy+++++++++++++++++++++++++++++++++++++++++++++
(PID.TID 0000.0001) //     32 ++++++++++++++++++wy+y+ww+xsrtwxyxvoyxvonrywwzywommlmpppqtttsuy++yy++yyy++++++++++++yxxyyxxxxvqmnpqw+++++++++++++++++++++++++++++++++++++++++++++++++++++++++++++++zyxwwwww+++++++++++++++++++++++++++++++++++++++++++++
(PID.TID 0000.0001) //     31 ++++++++++++++++wv++++++y+yxywxxyywqyywqnotsswwphglqttrnnqssswz++++++++++++++++++++zxxxyyxxyxwuport++++++++++++++++++++++++++++++++++++++++++++++++++++++++++++++++zyyxwwwww++++++++++++++++++++++++++++++++++++++++++++
(PID.TID 0000.0001) //     30 ++++++++++++++++w+++++++++++++wwxzyuxzyumnstsspmfdhmlhgfekosuxz+++++++++++++++++++++xxxyzyyyxwwsptx+++++++++++++++++++++++++++++++++++++++++++++++++++++++++++++zzzzyyxxwxxwwy++++++++++++++++++++++++++++++++++++++++++
(PID.TID 0000.0001) //     29 ++++++++++++++++++wwx+++++++++wwxyzxxyzxrnosspllkeabbaabdhmsvyzz++++++++++++++++++zxwwx++zyyxxwtps++++++++++++++++++++++++++++++++++++++++++++++++++++++++++++++yyzzyxxxxxxxxxz+++++++++++++++++++++++++++++++++++++++++
(PID.TID 0000.0001) //     28 +++++++++++++++xsvwxxxy+zzzzywwwwxyzwxyzypnorqnrwnc--aaabelsvxyx++++++++++++++++++zxxxx+++zyxxwvpr++++++++++++++++++++++++++++++++++++++++++++++++++++++++++++++yyzzyyxxyyyyyyzz++++++++++++++++++++++++++++++++++++++++
(PID.TID 0000.0001) //     27 +++++++++++++++vvwxxxxxxzzzyxwwvvwxyvwxyz+++trrwzwkdabccbenvwxxw++++++++++++++++++++xxyz++zyxxxwst+++++++++++++++++++++++++++++++++++++++++++++++++++++++++++++ywyz+zyxxyzz++zzz++++++++++++++++++++++++++++++++++++++++
(PID.TID 0000.0001) //     26 ++++++++++++++yxxyxwwwwxyyxxyxyyvwwxvwwxz++++yyyyyxvnmmmhhnuwxxy++++++++++++++++++++++++++zyxxxwss++++++++++++++++++++++++++++++++++++++++++++++++++++++++++++ywwx++zyyyxxxz++++z+++z+++++++++++++++++++++++++++++++++++
(PID.TID 0000.0001) //     25 +++++++++++++yyyyyxvuvwwwxwxyxy+vvwxvvwxzzx++++zxxxyxywwqorwxyy+++++++++++++++++++++++x++yyyxxxwss++++++++++++++++++++++++++++++++++++++++++++++++++++++++++++ywvwz+zzzwmkmrwyyzz+++z+++++++++++++++++++++++++++++++++++
(PID.TID 0000.0001) //     24 +++++++++++++yyyyyxwwwwstwwxyxy+wswxwswxyzz+++++xxxxy++xutvx++++++++++++++++++++++++++xx+yyzyxxvst++++++++++++++++++++++++++++++++++++++++++++++++++++++++++++ywxz++zzukgfghkqvxzz++zz++++++++++++++++++++++++++++++++++
(PID.TID 0000.0001) //     23 +++++++++++++zyyyyxxwwxxwwwxxxw++pvw+pvwxz++++++yxxy+++ywwwx+++++++++++++++++++++++oq+++xxzzyyxvsr++++++++++++++++++++++++++++++++++++++++++++++z+++++++++++++trwy+++wher+yumhkrwxy+wxy+++++++++++++++ww++++++++++++++++
(PID.TID 0000.0001) //     22 +++++++++++++zyyyyxyxxyyxwwwxxvr++wy++wy++++++++yxy+++++yxxw+++++++++++++++++++++++vlr+++x++zzywusw+++++++++++++++++++++++++++++++++++++++++++++xy++++++++++++wpqvy+xrht++++++xuuvwwuvww+++++++++++++lhhknw+++++++++++++
(PID.TID 0000.0001) //     21 +++++++++++++yxxyyyyxxyyxwwwxxrnv+++v++++++++++++yy++++++zyxy++++++++++++++++++++++vkkn++++++++xuutw++++++++++++++++++++++++++++++++++++++++++++xxx++++++++++++ywqsuop++++++++++++wu++wuwy++++++++++pkhghkklw+++++++++++
(PID.TID 0000.0001) //     20 +++++++++++++yxxyyyxxwxxxwwxxxpmqvwxqvwx+++++++++y++++++++++++++++++++++++++++++++++khknwt++++++wwwx++++++++++++++++++++++++++++++++++++++++++++xxxxxz++++++++++++wuw+++++++++++++++++++++++++x+++++okhhhhklr+++++++++++
(PID.TID 0000.0001) //     19 ++++++++++++++yyyyyyxwwwxwwxxwrnqwxyqwxy+++++++++++++++++y+++++++++++++++++++++++x++qlkmxx++++++xyy+++++++++++++++++++++++++++++++++++++++++++++yyxxwxz+++++++y++++++++++++++++++++++++++++++++ws++xqkhgghlow+++++++++++
(PID.TID 0000.0001) //     18 +++++++++++++++++++++wwxxxxwwwutwxz+wxz+++++++++++++++++yy++++yy++++++++w++++z++++++++rs++++++++++++++++++++++++++++++++++++++++++++++++++++++++yyyyxxz++++++y++++++++++++++++++++++++++++++++++xv+xqlhgfghkr+++++++++++
(PID.TID 0000.0001) //     17 +++++++++++++++++++++yxxyyxwturuy+++y++++++++++++++++++++yy++ywy++++++++v+++zy++++++++++++++++++++y+++++++++++++++++++++++++++++++++++++++++++++xxyzzyz++++zw+++++++++++++++++++++++++++++++++++xuwupkhgffghkq++++++++++
(PID.TID 0000.0001) //     16 +++++++++++++++++++++zxxxxxvrtqtz+++z+++++++++++++++++++++y++yy++++++z+++wwzz++++++++++++++++++++xxy++++++++++++++++++++++++++++++++++++++++++++xxyyyzz++++yw+++++++++++++++++++++++++++++++++++xsonnkhhggghho++++++++++
(PID.TID 0000.0001) //     15 zzzy++++++++++++++++++yxxxxvsusv+++++++++++++++++++++++++++z++++++++++yw+ytxy++xw++++++++++++++++wwx++++++++++++++++++++++++++++++++++++++++y+++yxxxxyz++++y+++++++++++++++++++++++++++++++++++++uoqsvkkhhhhkp++++++++++
(PID.TID 0000.0001) //     14 yyyxxy++++++++++++++++ywwwwvtttw++++++++++++++++++++++++++++++++++++++++++twxzzxwwwx++++++++++++zxwx+++++++++++++++++++++++++++++++++++++++++yy+xxwwxxxyz++v+++++++++++++++++++++++++++++++++++++woux+xmkhhklv++++++++++
(PID.TID 0000.0001) //     13 yxxxx++++++++++++++++++vvvvutsux+++++++++++++++++++++++++++++++++++++++++yvwxz++zzyy+++++++++++zyxwxx+++++++++++++++++++++++++++++++++++++++++++wvuttvwwvqot++++++++++++++++++++++++++++++++++++++vwy++plkkko+++++++++++
(PID.TID 0000.0001) //     12 xwwwy+++++++++++++++++xsuvuuuuwx++++++++++++++++++++++++++++++++++++++++++wwxzzzzzyy+++++++z+++xwwv++x++++++++++++++++++++++++++++++++++++++++++uqnmlossqoq++++++++++++++++++++++++++++++++++++++++++++qlkklw+++++++++++
(PID.TID 0000.0001) //     11 wwww++++++++++++++++++wtvvvvvvwy+++y+++y++++++++++++++++++++++++++zzzz+++wwwxyzzzzzz+++++zzyzywvtrv+++++++++++++++++++++++++++++++++++++++++++++pmmllnqpqw+++++++++++++++++++++++++++++++++++++++++++++qmmmq++++++++++++
(PID.TID 0000.0001) //     10 wwwx++++++++++++++++++xuvwwvuwy+++xw++xw+++++++++++++++++++++++++zyyyyzzywwwxyzzzzzzzzy++zxxxywvtsx+++++++++++++++++++++++++++++++++++++++++++++onnnoquw++++++++++++++++++++++++++++++++++++++++++++++++ww++++++++++++++
(PID.TID 0000.0001) //      9 wwwy+++++++++++++++++++tuvwvvw++++w+++w+++++++++++++++++++++++++zzyxyyyy+++yzzzzzzzzyxxzzywwxxyxxwx+++++++++++++++++++++++++++++++++++++++++++++rponrwy+++++++++++++++++++++++++++++++++++++++++++++++++++++++++++++++++
(PID.TID 0000.0001) //      8 wwy++++++++++++++++++++tuvvvwy++++x+++x+++++++++++++++++++++++yxxyxxxxyyyx+++zzzzzzyxyz+zzwwxxyxxwwxy+++++++++++++++++++++++++++++++++++++++++++tqposx++++++++++++++++++++++++++++++++++++++++++++++++++++++++++++++++++
(PID.TID 0000.0001) //      7 w++++++++++++++++++++++wvvusuz++++y+++y+++++++++++++++++++++++yxxxxxxxyzxsy++zzzzzzyyzzzzzxxxxwwwvvvxx+++++++++++++++++++++++++++++++++yxxxyy++++wxyy+++++++++++++++++++++++++++++++++++++++++++++++++++++++++++++++++++
(PID.TID 0000.0001) //      6 +++++++++++++++++++++++ywusqw+++++++++++++++++++++++++++++++++yxxxxxxxz+yrw++wzzzzyxyzzzzzxxxwuuwwxwxx++++++++++++++++++++++++++++++++zyyyyxxy++++++++++++++++++++++++++++++++++++++++++++++++++++++++++++++++++++++++++
(PID.TID 0000.0001) //      5 ++++++++++++++++++++++++vtrv++++++++++++++++++++++++++++++++++yxxyyyyyzzwtq++py++zyxzzzzzyxxxwsuwwxxxx+++++++++++++++++++++++++++++++yyxyzzzyy++++++++++++++++++++++++++++++++++++++++++++++++++++++++++++++++++++++++++
(PID.TID 0000.0001) //      4 ++++++++++++++++++++++++yyy+++++++++++++++++++++++++++++++++++yyyzzzzzzyxwsnnny++zyyyyzzywvtuvtvwwxxwx+++y+++y++++++++++++++++++w+++xxyyzzzzzz++++++++++++++++++++++++++++++++++++++++++++++++++++++++++++++++++++++++++
(PID.TID 0000.0001) //      3 +++++++++++++++++++++++++++++++++++++++++++++++++++++++++++++++++++++zzyxxtmnvz+zzzyxxxxwqpnotsuvwyxwy++++y+++y++++++++++++++++wv+++zyzzzzzyz+++++++++++++++++++++++++++++++++++++++++++++++++++++++++++++++++++++++++++
(PID.TID 0000.0001) //      2 ++++++++++++++++++++++++++++++++++++++++++++++++++++++++++++++++++++++zyyyunny+zzzzzxxwwrnmmmqsuvvxxw+++++y+++y++++++++++++++++w++++zyyz+zyyy+++++++++++++++++++++++++++++++++++++++++++++++++++++++++++++++++++++++++++
(PID.TID 0000.0001) //      1 ++++++++++++++++++++++++++++++++++++++++++++++++++++++++++++++++++++++++yxuooy+yyzzyxwwqoomlmqtvutwyy+++++y+++y++++++++++++++++y++++zyyyzzzzz+++++++++++++++++++++++++++++++++++++++++++++++++++++++++++y+++++++++++++++
(PID.TID 0000.0001) //      0 ++++++++++++++++++++++++++++++++++++++++++++++++++++++++++++++++++++++++wvvonrywwzywommlmpppqtttsuy++yy++yy++yy+++++++++++++++z++++zyyxxxyzz++++++++++++++++++++++++++++++++++++++++++++++++++++++++++++y+++++++yyz++++z
(PID.TID 0000.0001) //     -1 ++++++++++++++++++++++++++++++++++++++++++++++++++++++++++++++++++++++++qowqnotsswwphglqttrnnqssswz++++++++++++++++++++++++++++++++zyyxxxyz++++++++++++++++++++++++++++++++++++++++++++++++++++++++++++y+++++++yxyzzyz+y
(PID.TID 0000.0001) // =======================================================
(PID.TID 0000.0001) // END OF FIELD                                          =
(PID.TID 0000.0001) // =======================================================
(PID.TID 0000.0001) 
(PID.TID 0000.0001) // =======================================================
(PID.TID 0000.0001) // Field hFacC at iteration          0
(PID.TID 0000.0001) // CMIN =          2.000000000000000E-01
(PID.TID 0000.0001) // CMAX =          1.000000000000000E+00
(PID.TID 0000.0001) // CINT =          2.962962962962963E-02
(PID.TID 0000.0001) // SYMBOLS (CMIN->CMAX): -abcdefghijklmnopqrstuvwxyz+
(PID.TID 0000.0001) //                  0.0: .
(PID.TID 0000.0001) // RANGE I (Lo:Hi:Step):(    -1:   194:     1)
(PID.TID 0000.0001) // RANGE J (Lo:Hi:Step):(    34:    -1:    -1)
(PID.TID 0000.0001) // RANGE K (Lo:Hi:Step):(   1:   1:   1)
(PID.TID 0000.0001) // =======================================================
(PID.TID 0000.0001) K =   1
(PID.TID 0000.0001) //                I=8       I=18      I=28      I=34      I=44      I=54      I=64      I=70      I=80      I=90      I=96      I=106     I=116     I=126     I=132     I=142     I=152     I=162     I=168     I=178     I=188
(PID.TID 0000.0001) // |--J--|101234567|901234567|901234567|901234123|567890123|567890123|567890123|563456789|123456789|123456789|123456785|789012345|789012345|789012345|789078901|345678901|345678901|345678901|901234567|901234567|901234567|901234
(PID.TID 0000.0001) //     34 ++++++++++++++++++qe--bbap++++...........k+vtutskgc-..........hj-+++++++++++++++++++++hiorojd......k+++++++++++++++++++++++++++++++++++++++++++++++++++++++++++++++mgecdel++++++++++++++++++++++++++++++++++++++++++++++
(PID.TID 0000.0001) //     33 ++++++++++++++++++b...bac++k-............k+pqvspec-...........elk++++++++++++++++++++ihknomid......e+++++++++++++++++++++++++++++++++++++++++++++++++++++++++++++++tnhdc--l+++++++++++++++++++++++++++++++++++++++++++++
(PID.TID 0000.0001) //     32 ++++++++++++++++++ak+k+c-+e...bilg..lg....kaaro-..............k++kl++kkk++++++++++++mgillkije......d++++++++++++++++++++++++++++++++++++++++++++++++++++++++++++++ysnheba--+++++++++++++++++++++++++++++++++++++++++++++
(PID.TID 0000.0001) //     31 ++++++++++++++++-.++++++k+kfkdeipp-.pp-......db..............ar++++++++++++++++++++vkfilljikga.....+++++++++++++++++++++++++++++++++++++++++++++++++++++++++++++++yspmhbadcc++++++++++++++++++++++++++++++++++++++++++++
(PID.TID 0000.0001) //     30 ++++++++++++++++c+++++++++++++-citk.itk......................ju+++++++++++++++++++++hfipsnkmhc-...k+++++++++++++++++++++++++++++++++++++++++++++++++++++++++++++wuvrmlkgdhha-l++++++++++++++++++++++++++++++++++++++++++
(PID.TID 0000.0001) //     29 ++++++++++++++++++baf+++++++++-bfmvkfmvk.....................ouw++++++++++++++++++rkddi++tpoifa...++++++++++++++++++++++++++++++++++++++++++++++++++++++++++++++qoutnjjgfijgfhr+++++++++++++++++++++++++++++++++++++++++
(PID.TID 0000.0001) //     28 +++++++++++++++e..-fhjm+uuvtl---bfnwbfnwl.......-............kki++++++++++++++++++rjeej+++uoigc...++++++++++++++++++++++++++++++++++++++++++++++++++++++++++++++lovwolkjnpooqqrv++++++++++++++++++++++++++++++++++++++++
(PID.TID 0000.0001) //     27 +++++++++++++++..egiifekstspjd-..beo.beot+++...bta..........bjhd++++++++++++++++++++kint++xpige-..+++++++++++++++++++++++++++++++++++++++++++++++++++++++++++++ldmwytniiouwxxxvw++++++++++++++++++++++++++++++++++++++++
(PID.TID 0000.0001) //     26 ++++++++++++++kfimidbcdgkmiknill.-bj.-bjw++++llpmpe.........bfgl++++++++++++++++++++++++++vpjiga..++++++++++++++++++++++++++++++++++++++++++++++++++++++++++++m--iyzvnmnffiszxxxv+++v+++++++++++++++++++++++++++++++++++
(PID.TID 0000.0001) //     25 +++++++++++++qmmonf...b-agcgnil+..bj..bjutg++++vhhknhkc-...-ill+++++++++++++++++++++++j++qopkih-..++++++++++++++++++++++++++++++++++++++++++++++++++++++++++++l-.euzwtr-....dlpus+++s+++++++++++++++++++++++++++++++++++
(PID.TID 0000.0001) //     24 ++++++++++++xplmnng--a-..achmil+-.-i-.-inus+++++ighho++e...h++++++++++++++++++++++++++jh+pqslih...++++++++++++++++++++++++++++++++++++++++++++++++++++++++++++lbkrxxxu.........isw++sw++++++++++++++++++++++++++++++++++
(PID.TID 0000.0001) //     23 ++++++++++++ysnmmlhf-bifdcbgijc++..c+..cht++++++lgil+++ob-bg+++++++++++++++++++++++..+++jjrwpli...++++++++++++++++++++++++++++++++++++++++++++++v+++++++++++++..-qyyxc...+l.....afm+afm+++++++++++++++-c++++++++++++++++
(PID.TID 0000.0001) //     22 ++++++++++++ysonmmjkfhmnia-cfi..++al++al++++++++ofk+++++nigc+++++++++++++++++++++++...+++h++rrna..a+++++++++++++++++++++++++++++++++++++++++++++km++++++++++++e...nxi...++++++e...-d..-d+++++++++++++.....-+++++++++++++
(PID.TID 0000.0001) //     21 ++++++++++++yojkmnmlhjmmha-cfe...+++.++++++++++++ll++++++spjl++++++++++++++++++++++....++++++++j...a++++++++++++++++++++++++++++++++++++++++++++fgi++++++++++++l-.....++++++++++++e.++e.-l++++++++++........-+++++++++++
(PID.TID 0000.0001) //     20 +++++++++++++lfhlnljecfiidbgie....af..af+++++++++l+++++++++y++++++++++++++++++++++++....-.++++++-cej++++++++++++++++++++++++++++++++++++++++++++iihhjr++++++++++++-.c+++++++++++++++++++++++++j+++++.........+++++++++++
(PID.TID 0000.0001) //     19 ++++++++++++++lkoqpqi--bfdcegd...-fm.-fm+++++++++++++++++q+++++++++++++++++++++++j++....jj++++++kmp+++++++++++++++++++++++++++++++++++++++++++++llkidfsz++++++l++++++++++++++++++++++++++++++++b.++j........a+++++++++++
(PID.TID 0000.0001) //     18 +++++++++++++++++++++bbehgeb--..-kr+-kr+++++++++++++++++ll++++ll++++++++-++++t++++++++..++++++++++++++++++++++++++++++++++++++++++++++++++++++++llnoihr++++++l++++++++++++++++++++++++++++++++++j.+j.........+++++++++++
(PID.TID 0000.0001) //     17 +++++++++++++++++++++lghlkh-....lx++lx+++++++++++++++++++lp++lal++++++++.+++ro++++++++++++++++++++o+++++++++++++++++++++++++++++++++++++++++++++jkorrqv++++tc+++++++++++++++++++++++++++++++++++j.a...........++++++++++
(PID.TID 0000.0001) //     16 yy+++++++++++++++++++rhhkkg.....r+++r+++++++++++++++++++++l++pl++++++r+++abqw++++++++++++++++++++fim++++++++++++++++++++++++++++++++++++++++++++iimoorwz+++n-+++++++++++++++++++++++++++++++++++j.............++++++++++
(PID.TID 0000.0001) //     15 sstm++++++++++++++++++lfghe.....+++++++++++++++++++++++++++s++++++++++l-+k.eq++fc++++++++++++++++dbj++++++++++++++++++++++++++++++++++++++++o+++kjijkntx+++l+++++++++++++++++++++++++++++++++++++.............++++++++++
(PID.TID 0000.0001) //     14 pnnghl++++++++++++++++l--aa....a++++++++++++++++++++++++++++++++++++++++++.-kxwjccbj++++++++++++ufah+++++++++++++++++++++++++++++++++++++++++kl+geddegins++.+++++++++++++++++++++++++++++++++++++a..i+j.......++++++++++
(PID.TID 0000.0001) //     13 mhhei++++++++++++++++++........e+++++++++++++++++++++++++++++++++++++++++k.-guy+vsll+++++++++++uqe-jj+++++++++++++++++++++++++++++++++++++++++++a.....--....++++++++++++++++++++++++++++++++++++++.cn++......+++++++++++
(PID.TID 0000.0001) //     12 hedcn+++++++++++++++++g.......-g+++++++++++++++++++++++++++++++++++++x++++bbgsvwwuqp+++++++r+++gb-.++k++++++++++++++++++++++++++++++++++++++++++...........++++++++++++++++++++++++++++++++++++++++++++.....a+++++++++++
(PID.TID 0000.0001) //     11 bbcd++++++++++++++++++c.......al+++l+++l++++++++++++++++++++++++++sttt+++cabfqstuutu+++++wsqtna....+++++++++++++++++++++++++++++++++++++++++++++.........b+++++++++++++++++++++++++++++++++++++++++++++.....++++++++++++
(PID.TID 0000.0001) //     10 aa-e++++++++++++++++++e..--..-k+++gd++gd+++++++++++++++++++++++++vkknpswk-cafqsrrttuusqxytiijkb...j+++++++++++++++++++++++++++++++++++++++++++++.......-++++++++++++++++++++++++++++++++++++++++++++++++-a++++++++++++++
(PID.TID 0000.0001) //      9 d--l+++++++++++++++++++...-..c++++a+++a+++++++++++++++++++++++++urlkkmoq+++prtsrsuttmghtxnabejljh-j+++++++++++++++++++++++++++++++++++++++++++++.....-l+++++++++++++++++++++++++++++++++++++++++++++++++++++++++++++++++
(PID.TID 0000.0001) //      8 c-l++++++++++++++++++++.....-o++++f+++f+++++++++++++++++++++++ohilkihhmpke++yvsstutqjnsxxrddfikie--ko+++++++++++++++++++++++++++++++++++++++++++.....f++++++++++++++++++++++++++++++++++++++++++++++++++++++++++++++++++
(PID.TID 0000.0001) //      7 c++++++++++++++++++++++a.....s++++l+++l+++++++++++++++++++++++nggiigfhouf.k++rvtstsnmuxwvshghgc--...ek+++++++++++++++++++++++++++++++++piffkk++++dekk+++++++++++++++++++++++++++++++++++++++++++++++++++++++++++++++++++
(PID.TID 0000.0001) //      6 +++++++++++++++++++++++l-...a+++++++++++++++++++++++++++++++++nhhiiggjtyk.-++-swwumhowxwwtiihb..-bfafk++++++++++++++++++++++++++++++++sklnlifm++++++++++++++++++++++++++++++++++++++++++++++++++++++++++++++++++++++++++
(PID.TID 0000.0001) //      5 ++++++++++++++++++++++++....++++++++++++++++++++++++++++++++++oijlnmnqvxd..++.l+zuliquvxwqkhe-..-bjgge+++++++++++++++++++++++++++++++nmjottuqp++++++++++++++++++++++++++++++++++++++++++++++++++++++++++++++++++++++++++
(PID.TID 0000.0001) //      4 ++++++++++++++++++++++++kkk+++++++++++++++++++++++++++++++++++qmosuutttqeb....m++toooorul-......--jgck+++k+++k++++++++++++++++++-+++jglpsuuvvu++++++++++++++++++++++++++++++++++++++++++++++++++++++++++++++++++++++++++
(PID.TID 0000.0001) //      3 +++++++++++++++++++++++++++++++++++++++++++++++++++++++++++++++++++++vrnii....tyvtrqjhhh-........-kjak++++k+++k++++++++++++++++-.++xtprtvwtpr+++++++++++++++++++++++++++++++++++++++++++++++++++++++++++++++++++++++++++
(PID.TID 0000.0001) //      2 ++++++++++++++++++++++++++++++++++++++++++++++++++++++++++++++++++++++sppl...k+vtutskgc-..........hj-+++++k+++k++++++++++++++++-++++wqpuyxqnp+++++++++++++++++++++++++++++++++++++++++++++++++++++++++++++++++++++++++++
(PID.TID 0000.0001) //      1 ++++++++++++++++++++++++++++++++++++++++++++++++++++++++++++++++++++++++pg...k+pqvspec-...........elk+++++k+++k++++++++++++++++l++++somotvtrs+++++++++++++++++++++++++++++++++++++++++++++++++++++++++++l+++++++++++++++
(PID.TID 0000.0001) //      0 ++++++++++++++++++++++++++++++++++++++++++++++++++++++++++++++++++++++++-.....kaaro-..............k++kl++kk++kk+++++++++++++++r+++xtpmhhjqtv++++++++++++++++++++++++++++++++++++++++++++++++++++++++++++k+++++++mpu++++s
(PID.TID 0000.0001) //     -1 ++++++++++++++++++++++++++++++++++++++++++++++++++++++++++++++++++++++++..-......db..............ar++++++++++++++++++++++++++++++++tnkhfgnt++++++++++++++++++++++++++++++++++++++++++++++++++++++++++++o+++++++kfqvrps+p
(PID.TID 0000.0001) // =======================================================
(PID.TID 0000.0001) // END OF FIELD                                          =
(PID.TID 0000.0001) // =======================================================
(PID.TID 0000.0001) 
(PID.TID 0000.0001) // =======================================================
(PID.TID 0000.0001) // Field hFacW at iteration          0
(PID.TID 0000.0001) // CMIN =          2.000000000000000E-01
(PID.TID 0000.0001) // CMAX =          1.000000000000000E+00
(PID.TID 0000.0001) // CINT =          2.962962962962963E-02
(PID.TID 0000.0001) // SYMBOLS (CMIN->CMAX): -abcdefghijklmnopqrstuvwxyz+
(PID.TID 0000.0001) //                  0.0: .
(PID.TID 0000.0001) // RANGE I (Lo:Hi:Step):(    -1:   194:     1)
(PID.TID 0000.0001) // RANGE J (Lo:Hi:Step):(    34:    -1:    -1)
(PID.TID 0000.0001) // RANGE K (Lo:Hi:Step):(   1:   1:   1)
(PID.TID 0000.0001) // =======================================================
(PID.TID 0000.0001) K =   1
(PID.TID 0000.0001) //                I=8       I=18      I=28      I=34      I=44      I=54      I=64      I=70      I=80      I=90      I=96      I=106     I=116     I=126     I=132     I=142     I=152     I=162     I=168     I=178     I=188
(PID.TID 0000.0001) // |--J--|101234567|901234567|901234567|901234123|567890123|567890123|567890123|563456789|123456789|123456789|123456785|789012345|789012345|789012345|789078901|345678901|345678901|345678901|901234567|901234567|901234567|901234
(PID.TID 0000.0001) //     34 ++++++++++++++++++qe---baap+++............kvtttskgc-...........h--++++k.++++++++++++++hhioojd.......k++++++.+++++++++++++++++++++++++++++++++++.+++++++++++++++++++mgeccdel++++++++.+++++++++++++++++++++++++++++++++++.
(PID.TID 0000.0001) //     33 ++++++++++++++++++b....aac+k-.............kppqspec-............ekk++++k++++++++++++++ihhknmid.......e++++++++++++++++++++++++++++++++++++++++++++++++++++++++++++++tnhdc---l++++++++++++++++++++++++++++++++++++++++++++
(PID.TID 0000.0001) //     32 ++++++++++++++++++aakkkc--e....big..ig.....aaao-...............k+kkl+kkk++++++++++++mggilkiie.......d+++++++++++++++++++++++++++++++++++++++++++++++++++++++++++++ysnheba---++++++++++++++++++++++++++++++++++++++++++++
(PID.TID 0000.0001) //     31 ++++++++++++++++-..+++++kkkffddeip-.ip-.......b...............ar+++++++++++++++++++vkffiljiiga......++++++++++++++++++++++++++++++++++++++++++++++++++++++++++++++yspmhbaaccc+++++++++++++++++++++++++++++++++++++++++++
(PID.TID 0000.0001) //     30 ++++++++++++++++cc++++++++++++--cik.cik.......................ju++++++++++++++++++++hffipnkkhc-....k++++++++++++++++++++++++++++++++++++++++++++++++++++++++++++wuurmlkgddha--l+++++++++++++++++++++++++++++++++++++++++
(PID.TID 0000.0001) //     29 ++++++++++++++++++baaf++++++++--bfmkbfmk......................ouw+++++++++++++++++rkdddi+tpoifa....+++++++++++++++++++++++++++++++++++++++++++++++++++++++++++++qootnjjgffigffhr++++++++++++++++++++++++++++++++++++++++
(PID.TID 0000.0001) //     28 +++++++++++++++e...-fhjmuuutl----bfn-bfnl.....................kii+++++++++++++++++rjeeej++uoigc....+++++++++++++++++++++++++++++++++++++++++++++++++++++++++++++llovolkjjnoooqqrv+++v+++++++++++++++++++++++++++++++++++
(PID.TID 0000.0001) //     27 +++++++++++++++...egifeeksspjd-...be..beot++....ba...........bhdd+++++++++++++++++++kiint+xpige-...++++++++++++++++++++++++++++++++++++++++++++++++++++++++++++lddmwtniiiouwxxvvw+++w+++++++++++++++++++++++++++++++++++
(PID.TID 0000.0001) //     26 ++++++++++++++kffiidbbcdgkiikiil..-b..-bjw+++lllmme..........bfgl+++++++++++++++++++++++++vpjiga...+++++++++++++++++++++++++++++++++++++++++++++++++++++++++++m---iyvnmmfffisxxxvv++vv++++++++++++++++++++++++++++++++++
(PID.TID 0000.0001) //     25 +++++++++++++qmmmnf....--accgiil...b...bjtgg+++vhhhkhhc-....-ill++++++++++++++++++++++jj+qookih-...+++++++++++++++++++++++++++++++++++++++++++++++++++++++++++l-..euwtr-.....dlpss++ss++++++++++++++++++++++++++++++++++
(PID.TID 0000.0001) //     24 ++++++++++++xpllmng----...achiil-..--..-inss++++igghho+e....h+++++++++++++++++++++++++jhhppqlih....+++++++++++++++++++++++++++++++++++++++++++++++++++++++++++lbbkrxxu..........isw+isw+++++++++++++++++++++++++++++++++
(PID.TID 0000.0001) //     23 ++++++++++++ysnmmlhf--bfdcbbgicc+...+...cht+++++lggil++ob--bg++++++++++++++++++++++...++jjjrpli....+++++++++++++++++++++++++++++++++++++++++++++vv++++++++++++...-qyxc....l......afm.afm++++++++++++++--c+++++++++++++++
(PID.TID 0000.0001) //     22 ++++++++++++ysonmmjjffhmia--cf...+aa.+aal+++++++offk++++nigcc++++++++++++++++++++++....++hh+rrna...a++++++++++++++++++++++++++++++++++++++++++++hkm+++++++++++e....ni....+++++e....-...-d++++++++++++......-++++++++++++
(PID.TID 0000.0001) //     21 ++++++++++++yojjkmmlhhjmha--ce....++..+++++++++++lll+++++spjjl+++++++++++++++++++++.....+++++++j....a+++++++++++++++++++++++++++++++++++++++++++ffgi+++++++++++l-......+++++++++++e.++e..-l+++++++++.........-++++++++++
(PID.TID 0000.0001) //     20 +++++++++++++lffhlljeccfidbbge.....a...af++++++++ll++++++++yy+++++++++++++++++++++++.......+++++--cej+++++++++++++++++++++++++++++++++++++++++++iihhhjr+++++++++++-..c++++++++++++++++++++++++jj++++..........++++++++++
(PID.TID 0000.0001) //     19 ++++++++++++++lkkoppi---bdcced....-f..-fm++++++++++++++++qq++++++++++++++++++++++jj+.....jj+++++kkmp++++++++++++++++++++++++++++++++++++++++++++llkiddfsz+++++ll+++++++++++++++++++++++++++++++b..+j.........a++++++++++
(PID.TID 0000.0001) //     18 w++++++++++++++++++++bbbegeb--...-kr.-kr++++++++++++++++lll+++lll+++++++--+++tt+++++++...+++++++++++++++++++++++++++++++++++++++++++++++++++++++lllnihhr+++++ll+++++++++++++++++++++++++++++++++j..j..........++++++++++
(PID.TID 0000.0001) //     17 u++++++++++++++++++++lgghkh-.....lx+.lx++++++++++++++++++llp+laal+++++++..++roo+++++++++++++++++++oo++++++++++++++++++++++++++++++++++++++++++++jjkorqqv+++tcc++++++++++++++++++++++++++++++++++j..............+++++++++
(PID.TID 0000.0001) //     16 vyy++++++++++++++++++rhhhkg......r++.r++++++++++++++++++++ll+pll+++++rr++aabqw+++++++++++++++++++ffim+++++++++++++++++++++++++++++++++++++++++++iiimoorwz++n--++++++++++++++++++++++++++++++++++j..............+++++++++
(PID.TID 0000.0001) //     15 rssmm+++++++++++++++++lffge......+++.++++++++++++++++++++++ss+++++++++l-+k..eq+fcc+++++++++++++++dbbj+++++++++++++++++++++++++++++++++++++++oo++kjiijkntx++ll++++++++++++++++++++++++++++++++++++..............+++++++++
(PID.TID 0000.0001) //     14 mnngghl+++++++++++++++l---a.....a+++a+++++++++++++++++++++++++++++++++++++..-kwjccbbj+++++++++++ufaah++++++++++++++++++++++++++++++++++++++++kklgedddegins+..++++++++++++++++++++++++++++++++++++a...ij........+++++++++
(PID.TID 0000.0001) //     13 lhheei+++++++++++++++++.........e+++e++++++++++++++++++++++++++++++++++++k..-guyvslll++++++++++uqe--jj++++++++++++++++++++++++++++++++++++++++++a......-.....+++++++++++++++++++++++++++++++++++++..cn+.......++++++++++
(PID.TID 0000.0001) //     12 hedccn++++++++++++++++g........-g+++g++++++++++++++++++++++++++++++++xx+++bbbgsvwuqpp++++++rr++gb-..+kk+++++++++++++++++++++++++++++++++++++++++............+++++++++++++++++++++++++++++++++++++++++++......a++++++++++
(PID.TID 0000.0001) //     11 bbbcd+++++++++++++++++c........al++ll++ll+++++++++++++++++++++++++ssttt++caabfqstuttu++++wsqqna.....++++++++++++++++++++++++++++++++++++++++++++..........b++++++++++++++++++++++++++++++++++++++++++++......+++++++++++
(PID.TID 0000.0001) //     10 aa--e+++++++++++++++++e...-...-k++gd++gdd++++++++++++++++++++++++vkkknpsk--aafqrrrttusqqxtiiijb....j++++++++++++++++++++++++++++++++++++++++++++........-+++++++++++++++++++++++++++++++++++++++++++++++--a+++++++++++++
(PID.TID 0000.0001) //      9 d---l++++++++++++++++++.......c+++aa++aa++++++++++++++++++++++++urlkkkmo+++pprsrrsttmgghtnaabejjh--j++++++++++++++++++++++++++++++++++++++++++++......-l++++++++++++++++++++++++++++++++++++++++++++++++++++++++++++++++
(PID.TID 0000.0001) //      8 c--l+++++++++++++++++++......-o+++ff++ff++++++++++++++++++++++ohhikihhhmkee+yvsssttqjjnsxrdddfiie---ko++++++++++++++++++++++++++++++++++++++++++......f+++++++++++++++++++++++++++++++++++++++++++++++++++++++++++++++++
(PID.TID 0000.0001) //      7 ac+++++++++++++++++++++a......s+++ll++ll++++++++++++++++++++++ngggigffhof..k+rrtsssnmmuwvshgggc--....ek++++++++++++++++++++++++++++++++pifffkk+++ddekk++++++++++++++++++++++++++++++++++++++++++++++++++++++++++++++++++
(PID.TID 0000.0001) //      6 -++++++++++++++++++++++l-....a++++++++++++++++++++++++++++++++nhhhigggjtk..-+--swumhhowwwtiihb...-baafk+++++++++++++++++++++++++++++++skklliffm+++++++++++++++++++++++++++++++++++++++++++++++++++++++++++++++++++++++++
(PID.TID 0000.0001) //      5 l+++++++++++++++++++++++.....+++++++++++++++++++++++++++++++++oiijlmmnqvd...+..lzuliiquvwqkhe-...-bggee++++++++++++++++++++++++++++++nmjjottqpp+++++++++++++++++++++++++++++++++++++++++++++++++++++++++++++++++++++++++
(PID.TID 0000.0001) //      4 ++++++++++++++++++++++++kkkk++++++++++++++++++++++++++++++++++qmmosutttq-b.....m+tooooorl-.......--gcck++kk++kk+++++++++++++++++--++jgglpsuuvuu+++++++++++++++++++++++++++++++++++++++++++++++++++++++++++++++++++++++++
(PID.TID 0000.0001) //      3 +++++++++++++++++++++++++++++++++++++++++++++++++++++++++++++++++++++vrnci.....tvtrqjhhh-.........-jaak+++kk++kk+++++++++++++++-..+xtpprtvtppr++++++++++++++++++++++++++++++++++++++++++++++++++++++++++++++++++++++++++
(PID.TID 0000.0001) //      2 ++++++++++++++++++++++++++++++++++++++++++++++++++++++++++++++++++++++spil....kvtttskgc-...........h--++++kk++kk+++++++++++++++--+++wqppuxqnnp++++++++++++++++++++++++++++++++++++++++++++++++++++++++++++++++++++++++++
(PID.TID 0000.0001) //      1 ++++++++++++++++++++++++++++++++++++++++++++++++++++++++++++++++++++++++pg....kppqspec-............ekk++++kk++kk+++++++++++++++ll+++sommottrrs++++++++++++++++++++++++++++++++++++++++++++++++++++++++++ll++++++++++++++
(PID.TID 0000.0001) //      0 ++++++++++++++++++++++++++++++++++++++++++++++++++++++++++++++++++++++++-......aaao-...............k+kkl+kkk+kkk++++++++++++++rr++xtpmhhhjqtv+++++++++++++++++++++++++++++++++++++++++++++++++++++++++++kk++++++mmpu+++s
(PID.TID 0000.0001) //     -1 +++++++++++++++++++++++++++++++++++++++++++++++++++++++++++++++++++++++p..-.......b...............ar+++++++++++++++++++++++++++++++tnkhffgnt+++++++++++++++++++++++++++++++++++++++++++++++++++++++++++oo++++++kffqrpps+
(PID.TID 0000.0001) // =======================================================
(PID.TID 0000.0001) // END OF FIELD                                          =
(PID.TID 0000.0001) // =======================================================
(PID.TID 0000.0001) 
(PID.TID 0000.0001) // =======================================================
(PID.TID 0000.0001) // Field hFacS at iteration          0
(PID.TID 0000.0001) // CMIN =          2.000000000000000E-01
(PID.TID 0000.0001) // CMAX =          1.000000000000000E+00
(PID.TID 0000.0001) // CINT =          2.962962962962963E-02
(PID.TID 0000.0001) // SYMBOLS (CMIN->CMAX): -abcdefghijklmnopqrstuvwxyz+
(PID.TID 0000.0001) //                  0.0: .
(PID.TID 0000.0001) // RANGE I (Lo:Hi:Step):(    -1:   194:     1)
(PID.TID 0000.0001) // RANGE J (Lo:Hi:Step):(    34:    -1:    -1)
(PID.TID 0000.0001) // RANGE K (Lo:Hi:Step):(   1:   1:   1)
(PID.TID 0000.0001) // =======================================================
(PID.TID 0000.0001) K =   1
(PID.TID 0000.0001) //                I=8       I=18      I=28      I=34      I=44      I=54      I=64      I=70      I=80      I=90      I=96      I=106     I=116     I=126     I=132     I=142     I=152     I=162     I=168     I=178     I=188
(PID.TID 0000.0001) // |--J--|101234567|901234567|901234567|901234123|567890123|567890123|567890123|563456789|123456789|123456789|123456785|789012345|789012345|789012345|789078901|345678901|345678901|345678901|901234567|901234567|901234567|901234
(PID.TID 0000.0001) //     34 ++++++++++++++++++b...baap+k-........g...k+pquspec-...........ej-+++++k.+++++++++++++ihinomid......e+++++++.+++++++++++++++++++++++++++++++++++.+++++++++++++++++++mgecc--l++++++++.+++++++++++++++++++++++++++++++++++.
(PID.TID 0000.0001) //     33 ++++++++++++++++++a...ba-+e...............kaaro-..............elkkl++kkk++++++++++++mghklkiid......d++++++++++++++++++++++++++++++++++++++++++++++++++++++++++++++ysnhdb---+++++++++++++++++++++++++++++++++++++++++++++
(PID.TID 0000.0001) //     32 ++++++++++++++++-.ak+k+c-+e...bilg..lg.......db...............k++kl++kkk+++++++++++vkfilljije......d++++++++++++++++++++++++++++++++++++++++++++++++++++++++++++++ysnheba--c++++++++++++++++++++++++++++++++++++++++++++
(PID.TID 0000.0001) //     31 ++++++++++++++++-.++++++k+kfkd-cip-.ip-......................ar++++++++++++++++++++vhfilljikga.....+++++++++++++++++++++++++++++++++++++++++++++++++++++++++++++wuvrmlhbadca-l++++++++++++++++++++++++++++++++++++++++++
(PID.TID 0000.0001) //     30 ++++++++++++++++c+baf+++++++++-bfmk.fmk......................juw++++++++++++++++++rkddipsnkmhc-...k+++++++++++++++++++++++++++++++++++++++++++++++++++++++++++++qourmjjgdhha-hr+++++++++++++++++++++++++++++++++++++++++
(PID.TID 0000.0001) //     29 +++++++++++++++e..-afjm+uuvtl---bfnkbfnk.....................kki++++++++++++++++++rjddi++tpoifa...++++++++++++++++++++++++++++++++++++++++++++++++++++++++++++++loutnjjgfijgfhrv++++++++++++++++++++++++++++++++++++++++
(PID.TID 0000.0001) //     28 +++++++++++++++...-fhfekstspj--..beo.beol.......-............jhd++++++++++++++++++rjeejt++uoigc...+++++++++++++++++++++++++++++++++++++++++++++++++++++++++++++ldmvwoliinpooqqrv++++++++++++++++++++++++++++++++++++++++
(PID.TID 0000.0001) //     27 ++++++++++++++k..egdbcdgkmikjd-..-bj.-bjt+++...bma..........bfgd++++++++++++++++++++kint++vpige-..++++++++++++++++++++++++++++++++++++++++++++++++++++++++++++m--iwytniiffisxxvwv+++v+++++++++++++++++++++++++++++++++++
(PID.TID 0000.0001) //     26 +++++++++++++qkfimf...b-agcgnill..bj..bjutg++llphhe.........bfgl++++++++++++++++++++++j++qopjig-..++++++++++++++++++++++++++++++++++++++++++++++++++++++++++++l-.euzvnm-....dlpus+++s+++++++++++++++++++++++++++++++++++
(PID.TID 0000.0001) //     25 ++++++++++++xplmnnf...-..acgmil+..-i..-intg++++vhghhhkc-...-ill+++++++++++++++++++++++jh+popkih...++++++++++++++++++++++++++++++++++++++++++++++++++++++++++++l-.euxwt.........isw++sw++++++++++++++++++++++++++++++++++
(PID.TID 0000.0001) //     24 ++++++++++++xplmmlg--a-..abgiic+-..c-..chts+++++ighho++e...g+++++++++++++++++++++++..+jhjjqslih...++++++++++++++++++++++++++++++++++++++++++++++v+++++++++++++..-qxxxc..........afm+afm+++++++++++++++-c++++++++++++++++
(PID.TID 0000.0001) //     23 ++++++++++++ysnmmlhf-bifda-cfi..+..c+..cht++++++lfil+++ob-bc+++++++++++++++++++++++...++jhrwpli...a+++++++++++++++++++++++++++++++++++++++++++++km++++++++++++....nxi....+l.......-d..-d+++++++++++++.....-+++++++++++++
(PID.TID 0000.0001) //     22 ++++++++++++yojkmmjkfhmmha-cfe...+al.+al++++++++ofk+++++nigcl++++++++++++++++++++++....++h++rrna...a++++++++++++++++++++++++++++++++++++++++++++fgi+++++++++++e.........++++++e...-...-.-l++++++++++........-+++++++++++
(PID.TID 0000.0001) //     21 ++++++++++++ylfhlnljecfiha-cfe....af..af+++++++++ll++++++spjl++++++++++++++++++++++.....-.+++++j...a++++++++++++++++++++++++++++++++++++++++++++fghhjr+++++++++l-.....++++++++++++e.++e.-l++++j+++++.........+++++++++++
(PID.TID 0000.0001) //     20 +++++++++++++lfhlnlje--bfdbegd....af..af+++++++++l+++++++q+y+++++++++++++++++++++j++....-.++++++-cej++++++++++++++++++++++++++++++++++++++++++++iihhdfsz++++++l+++-.c+++++++++++++++++++++++++jb.++j.........+++++++++++
(PID.TID 0000.0001) //     19 ++++++++++++++lkoqpqi--bfdcb--...-fm.-fm++++++++++++++++ll++++ll++++++++-++++t+++j++....jj++++++kmp+++++++++++++++++++++++++++++++++++++++++++++llkidfrz+++++ll++++++++++++++++++++++++++++++++b..+j.........+++++++++++
(PID.TID 0000.0001) //     18 +++++++++++++++++++++bbehge-....-kr+-kr+++++++++++++++++llp++lal++++++++.+++ro++++++++..++++++++++o+++++++++++++++++++++++++++++++++++++++++++++jknoihr++++tcl++++++++++++++++++++++++++++++++++j.a...........++++++++++
(PID.TID 0000.0001) //     17 yy+++++++++++++++++++lghkkg.....lx++lx+++++++++++++++++++ll++lal+++++r++.abqro+++++++++++++++++++fim++++++++++++++++++++++++++++++++++++++++++++iimooqvz+++n-+++++++++++++++++++++++++++++++++++j.............++++++++++
(PID.TID 0000.0001) //     16 sstm+++++++++++++++++rhfghe.....r+++r+++++++++++++++++++++ls+pl++++++rl-+a.eq++fc++++++++++++++++dbj++++++++++++++++++++++++++++++++++++++++o+++iiijkntx+++l-+++++++++++++++++++++++++++++++++++j.............++++++++++
(PID.TID 0000.0001) //     15 pnnghl++++++++++++++++l--aa.....+++++++++++++++++++++++++++s++++++++++l-+k.-kxwfccbj++++++++++++udah++++++++++++++++++++++++++++++++++++++++okl+geddegins++.+++++++++++++++++++++++++++++++++++++.............++++++++++
(PID.TID 0000.0001) //     14 mhhehl++++++++++++++++l........a+++++++++++++++++++++++++++++++++++++++++k.-guwjccbj+++++++++++uqe-hj++++++++++++++++++++++++++++++++++++++++kl+a.....--....+++++++++++++++++++++++++++++++++++++a..i+j.......++++++++++
(PID.TID 0000.0001) //     13 hedci+++++++++++++++++g........e+++++++++++++++++++++++++++++++++++++x+++k.-gsvwvsll+++++++r+++gb-.jjk++++++++++++++++++++++++++++++++++++++++++............++++++++++++++++++++++++++++++++++++++.cn++......+++++++++++
(PID.TID 0000.0001) //     12 bbccn+++++++++++++++++c.......-g+++l+++l++++++++++++++++++++++++++sttt+++cabfqstuuqp+++++wsqtna....++k++++++++++++++++++++++++++++++++++++++++++...........++++++++++++++++++++++++++++++++++++++++++++.....a+++++++++++
(PID.TID 0000.0001) //     11 aa-d++++++++++++++++++c.......al++gd++gd+++++++++++++++++++++++++vkknpswk-aafqsrrttuusqxytiijka....+++++++++++++++++++++++++++++++++++++++++++++.........b+++++++++++++++++++++++++++++++++++++++++++++.....++++++++++++
(PID.TID 0000.0001) //     10 a--e++++++++++++++++++e...-..-k+++ad++ad++++++++++++++++++++++++urkkkmoqk-cafqsrrtttmghtxnabejb...j+++++++++++++++++++++++++++++++++++++++++++++.......-++++++++++++++++++++++++++++++++++++++++++++++++-a++++++++++++++
(PID.TID 0000.0001) //      9 c--l+++++++++++++++++++......c++++a+++a+++++++++++++++++++++++ohilkihhmpke+prtsrsutqjghtxnabeikie--ko+++++++++++++++++++++++++++++++++++++++++++.....-l+++++++++++++++++++++++++++++++++++++++++++++++++++++++++++++++++
(PID.TID 0000.0001) //      8 c-l++++++++++++++++++++......o++++f+++f+++++++++++++++++++++++nggiigfhmpf.k+yrssstsnjnswvrddfgc--...ek+++++++++++++++++++++++++++++++++piffkk+++.....f++++++++++++++++++++++++++++++++++++++++++++++++++++++++++++++++++
(PID.TID 0000.0001) //      7 c++++++++++++++++++++++a.....s++++l+++l+++++++++++++++++++++++nggiigfhouf.-++-ststmhmuxwvshghb..-...ek++++++++++++++++++++++++++++++++skiffifm+++dekk+++++++++++++++++++++++++++++++++++++++++++++++++++++++++++++++++++
(PID.TID 0000.0001) //      6 +++++++++++++++++++++++l....a+++++++++++++++++++++++++++++++++nhhiiggjtxd..++.lwwulhouvwwqihe-..-bfafe+++++++++++++++++++++++++++++++nmjlnlifm++++++++++++++++++++++++++++++++++++++++++++++++++++++++++++++++++++++++++
(PID.TID 0000.0001) //      5 ++++++++++++++++++++++++....++++++++++++++++++++++++++++++++++oijlnmnqtqd.....l+ztlioorul-......--jgce+++k+++k++++++++++++++++++-+++jgljottuqp++++++++++++++++++++++++++++++++++++++++++++++++++++++++++++++++++++++++++
(PID.TID 0000.0001) //      4 ++++++++++++++++++++++++kkk+++++++++++++++++++++++++++++++++++qmosuuttrneb....myvtoojhhh-........-jgak+++kk++kk++++++++++++++++-.++xjglpsutpru++++++++++++++++++++++++++++++++++++++++++++++++++++++++++++++++++++++++++
(PID.TID 0000.0001) //      3 +++++++++++++++++++++++++++++++++++++++++++++++++++++++++++++++++++++vrnii....tvttrqjgc-..........hj-k++++k+++k++++++++++++++++-.++xtpptvwqnp+++++++++++++++++++++++++++++++++++++++++++++++++++++++++++++++++++++++++++
(PID.TID 0000.0001) //      2 ++++++++++++++++++++++++++++++++++++++++++++++++++++++++++++++++++++++sppg...k+pquspec-...........ej-+++++k+++k++++++++++++++++-++++somotvqnp+++++++++++++++++++++++++++++++++++++++++++++++++++++++++++l+++++++++++++++
(PID.TID 0000.0001) //      1 ++++++++++++++++++++++++++++++++++++++++++++++++++++++++++++++++++++++++-.....kaaro-..............elkkl++kk++kk+++++++++++++++rl++xtpmhhjqtrs+++++++++++++++++++++++++++++++++++++++++++++++++++++++++++k+++++++mpu++++s
(PID.TID 0000.0001) //      0 +++++++++++++++++++++++++++++++++++++++++++++++++++++++++++++++++++++++p.g.......db...............k++kl++kkk++k+++++++++++++++r+++xtnkhfgntv+++++++++++++++++++++++++++++++++++++++++++++++++++++++++++ok++++++kfpurps++
(PID.TID 0000.0001) //     -1 +++++++++++++++++++++++++++++++++++++++++++++++++++++++++++++++++++++++pip-......................ar++++++++++++++++++++++++++++++++tkkhfgmt++++++++++++++++++++++++++++++++++++++++++++++++++++++++++++o+++++++kfqvpnrv+
(PID.TID 0000.0001) // =======================================================
(PID.TID 0000.0001) // END OF FIELD                                          =
(PID.TID 0000.0001) // =======================================================
(PID.TID 0000.0001) 
(PID.TID 0000.0001) GAD_INIT_FIXED: GAD_OlMinSize=  2  0  1
(PID.TID 0000.0001) 
(PID.TID 0000.0001) // ===================================
(PID.TID 0000.0001) // GAD parameters :
(PID.TID 0000.0001) // ===================================
(PID.TID 0000.0001) tempAdvScheme =   /* Temp. Horiz.Advection scheme selector */
(PID.TID 0000.0001)                       2
(PID.TID 0000.0001)     ;
(PID.TID 0000.0001) tempVertAdvScheme =   /* Temp. Vert. Advection scheme selector */
(PID.TID 0000.0001)                       2
(PID.TID 0000.0001)     ;
(PID.TID 0000.0001) tempMultiDimAdvec =   /* use Muti-Dim Advec method for Temp */
(PID.TID 0000.0001)                   F
(PID.TID 0000.0001)     ;
(PID.TID 0000.0001) tempSOM_Advection = /* use 2nd Order Moment Advection for Temp */
(PID.TID 0000.0001)                   F
(PID.TID 0000.0001)     ;
(PID.TID 0000.0001) AdamsBashforthGt = /* apply Adams-Bashforth extrapolation on Gt */
(PID.TID 0000.0001)                   T
(PID.TID 0000.0001)     ;
(PID.TID 0000.0001) AdamsBashforth_T = /* apply Adams-Bashforth extrapolation on Temp */
(PID.TID 0000.0001)                   F
(PID.TID 0000.0001)     ;
(PID.TID 0000.0001) saltAdvScheme =   /* Salt. Horiz.advection scheme selector */
(PID.TID 0000.0001)                       3
(PID.TID 0000.0001)     ;
(PID.TID 0000.0001) saltVertAdvScheme =   /* Salt. Vert. Advection scheme selector */
(PID.TID 0000.0001)                       3
(PID.TID 0000.0001)     ;
(PID.TID 0000.0001) saltMultiDimAdvec =   /* use Muti-Dim Advec method for Salt */
(PID.TID 0000.0001)                   F
(PID.TID 0000.0001)     ;
(PID.TID 0000.0001) saltSOM_Advection = /* use 2nd Order Moment Advection for Salt */
(PID.TID 0000.0001)                   F
(PID.TID 0000.0001)     ;
(PID.TID 0000.0001) AdamsBashforthGs = /* apply Adams-Bashforth extrapolation on Gs */
(PID.TID 0000.0001)                   T
(PID.TID 0000.0001)     ;
(PID.TID 0000.0001) AdamsBashforth_S = /* apply Adams-Bashforth extrapolation on Salt */
(PID.TID 0000.0001)                   F
(PID.TID 0000.0001)     ;
(PID.TID 0000.0001) // ===================================
- INPHYS: k,SIG, SIGH,   SIGL,   WVI(1),  WVI(2):
  1   0.0750   0.1500  -2.5903   0.8306   0.5757
  2   0.2500   0.3500  -1.3863   1.4427   0.4854
  3   0.5000   0.6500  -0.6931   2.2818   0.5987
  4   0.7750   0.9000  -0.2549   4.9116   0.7344
  5   0.9500   1.0000  -0.0513   0.0000   0.0377
- INPHYS: end setup WVI.
(PID.TID 0000.0001)  AIM_READ_PHYSPARMS: opening data.aimphys
(PID.TID 0000.0001)  OPEN_COPY_DATA_FILE: opening file data.aimphys
(PID.TID 0000.0001) // =======================================================
(PID.TID 0000.0001) // Parameter file "data.aimphys"
(PID.TID 0000.0001) // =======================================================
(PID.TID 0000.0001) ># AIM physics package parameters:
(PID.TID 0000.0001) >
(PID.TID 0000.0001) >C--   AIM interface parameter (namelist AIM_PARAMS):
(PID.TID 0000.0001) >#     aim_useFMsurfBC :: select surface B.C. from Franco Molteni
(PID.TID 0000.0001) >#     aim_useMMsurfFc :: select Monthly Mean surface forcing (e.g., NCEP)
(PID.TID 0000.0001) >#     aim_surfPotTemp :: surf.Temp input file is in Pot.Temp (aim_useMMsurfFc)
(PID.TID 0000.0001) >#     aim_energPrecip :: account for energy of precipitation (snow & rain temp)
(PID.TID 0000.0001) >#     aim_splitSIOsFx :: compute separately Sea-Ice & Ocean surf. Flux
(PID.TID 0000.0001) >#     aim_LandFile :: file name for Land fraction [0-1]
(PID.TID 0000.0001) >#     aim_MMsufx   :: sufix for all Monthly Mean surface forcing files
(PID.TID 0000.0001) >#     aim_MMsufxLength :: Length of sufix (Monthly Mean surf. forc. files)
(PID.TID 0000.0001) >#     aim_albFile  :: file name for Albedo input file   (F.M. surfBC)
(PID.TID 0000.0001) >#     aim_vegFile  :: file name for vegetation fraction (F.M. surfBC)
(PID.TID 0000.0001) >#     aim_sstFile  :: file name for  Sea.Surf.Temp      (F.M. surfBC)
(PID.TID 0000.0001) >#     aim_lstFile  :: file name for Land.Surf.Temp      (F.M. surfBC)
(PID.TID 0000.0001) >#     aim_oiceFile :: file name for Sea Ice fraction    (F.M. surfBC)
(PID.TID 0000.0001) >#     aim_snowFile :: file name for Snow depth          (F.M. surfBC)
(PID.TID 0000.0001) >#     aim_swcFile  :: file name for Soil Water content  (F.M. surfBC)
(PID.TID 0000.0001) >#     aim_dragStrato :: stratospheric-drag damping time scale (s)
(PID.TID 0000.0001) >#     aim_clrSkyDiag :: compute clear-sky radiation for diagnostics
(PID.TID 0000.0001) >#     aim_taveFreq :: Frequency^-1 for time-average output (s)
(PID.TID 0000.0001) >#     aim_diagFreq :: Frequency^-1 for diagnostic output (s)
(PID.TID 0000.0001) >#     aim_tendFreq :: Frequency^-1 for tendencies output (s)
(PID.TID 0000.0001) > &AIM_PARAMS
(PID.TID 0000.0001) >#  aim_useFMsurfBC=.FALSE.,
(PID.TID 0000.0001) >#  aim_useMMsurfFc=.TRUE.,
(PID.TID 0000.0001) >#  aim_surfPotTemp=.TRUE.,
(PID.TID 0000.0001) >   aim_energPrecip=.TRUE.,
(PID.TID 0000.0001) >   aim_splitSIOsFx=.TRUE.,
(PID.TID 0000.0001) >   aim_LandFile= 'landFrc.cpl_FM.bin',
(PID.TID 0000.0001) >   aim_albFile = 'albedo_cs32.bin',
(PID.TID 0000.0001) >   aim_vegFile = 'vegetFrc.cpl_FM.bin',
(PID.TID 0000.0001) >   aim_sstFile = 'seaSurfT.cpl_FM.bin',
(PID.TID 0000.0001) >   aim_lstFile = 'lndSurfT.cpl_FM.bin',
(PID.TID 0000.0001) >   aim_oiceFile= 'seaIce.cpl3FM.bin',
(PID.TID 0000.0001) >   aim_snowFile= 'snowDepth.cpl_FM.bin',
(PID.TID 0000.0001) >   aim_swcFile = 'soilMoist.cpl_FM.bin',
(PID.TID 0000.0001) >   aim_dragStrato= 2592000.,
(PID.TID 0000.0001) >#  aim_clrSkyDiag=.TRUE.,
(PID.TID 0000.0001) >#  aim_diagFreq=3600.,
(PID.TID 0000.0001) > /
(PID.TID 0000.0001) >
(PID.TID 0000.0001) >#--   Physical constants
(PID.TID 0000.0001) >#       P0    = reference pressure                 [Pa=N/m2]
(PID.TID 0000.0001) >#       GG    = gravity accel.                     [m/s2]
(PID.TID 0000.0001) >#       RD    = gas constant for dry air           [J/kg/K]
(PID.TID 0000.0001) >#       CP    = specific heat at constant pressure [J/kg/K]
(PID.TID 0000.0001) >#       ALHC  = latent heat of condensation        [J/g]
(PID.TID 0000.0001) >#       ALHF  = latent heat of freezing            [J/g]
(PID.TID 0000.0001) >#       SBC   = Stefan-Boltzmann constant
(PID.TID 0000.0001) >#     rainCP  = heat capacity of liquid water      [J/g/K]
(PID.TID 0000.0001) >#     tFreeze = freezing temperature of pure water [K]
(PID.TID 0000.0001) >
(PID.TID 0000.0001) >#--   Constants for forcing fields (namelist AIM_PAR_FOR):
(PID.TID 0000.0001) >#      SOLC   = Solar constant (area averaged) in W/m^2
(PID.TID 0000.0001) >#      ALBSEA = Albedo over sea
(PID.TID 0000.0001) >#      ALBICE = Albedo over sea ice (for ice fraction = 1)
(PID.TID 0000.0001) >#      ALBSN  = Albedo over snow (for snow depth > SDALB)
(PID.TID 0000.0001) >#      SDALB  = Snow depth (mm water) corresponding to maximum albedo
(PID.TID 0000.0001) >#      SWCAP  = Soil wetness at field capacity (volume fraction)
(PID.TID 0000.0001) >#      SWWIL  = Soil wetness at wilting point  (volume fraction)
(PID.TID 0000.0001) >#      hSnowWetness :: snow depth (m) corresponding to maximum wetness
(PID.TID 0000.0001) > &AIM_PAR_FOR
(PID.TID 0000.0001) > /
(PID.TID 0000.0001) >
(PID.TID 0000.0001) >#--   Constants for surface fluxes (namelist AIM_PAR_SFL):
(PID.TID 0000.0001) >#      FWIND0 = ratio of near-sfc wind to lowest-level wind
(PID.TID 0000.0001) >#      FTEMP0 = weight for near-sfc temperature extrapolation (0-1) :
(PID.TID 0000.0001) >#               1 : linear extrapolation from two lowest levels
(PID.TID 0000.0001) >#               0 : constant potential temperature ( = lowest level)
(PID.TID 0000.0001) >#      FHUM0  = weight for near-sfc specific humidity extrapolation (0-1) :
(PID.TID 0000.0001) >#               1 : extrap. with constant relative hum. ( = lowest level)
(PID.TID 0000.0001) >#               0 : constant specific hum. ( = lowest level)
(PID.TID 0000.0001) >#      CDL    = drag coefficient for momentum over land
(PID.TID 0000.0001) >#      CDS    = drag coefficient for momentum over sea
(PID.TID 0000.0001) >#      CHL    = heat exchange coefficient over land
(PID.TID 0000.0001) >#      CHS    = heat exchange coefficient over sea
(PID.TID 0000.0001) >#      VGUST  = wind speed for sub-grid-scale gusts
(PID.TID 0000.0001) >#      CTDAY  = daily-cycle correction (dTskin/dSSRad)
(PID.TID 0000.0001) >#      DTHETA = Potential temp. gradient for stability correction
(PID.TID 0000.0001) >#      dTstab = potential temp. increment for stability function derivative
(PID.TID 0000.0001) >#      FSTAB  = Amplitude of stability correction (fraction)
(PID.TID 0000.0001) >#      HDRAG  = Height scale for orographic correction
(PID.TID 0000.0001) >#      FHDRAG = Amplitude of orographic correction (fraction)
(PID.TID 0000.0001) > &AIM_PAR_SFL
(PID.TID 0000.0001) >#  FTEMP0 = 0.,
(PID.TID 0000.0001) >#  FHUM0  = 0.,
(PID.TID 0000.0001) >#  dTstab = 0.,
(PID.TID 0000.0001) > /
(PID.TID 0000.0001) >
(PID.TID 0000.0001) >#--   Convection constants (namelist AIM_PAR_CNV):
(PID.TID 0000.0001) >#      PSMIN  = minimum (norm.) sfc. pressure for the occurrence of convection
(PID.TID 0000.0001) >#      TRCNV  = time of relaxation (in hours) towards reference state
(PID.TID 0000.0001) >#      QBL    = specific hum. threshold in the boundary layer
(PID.TID 0000.0001) >#      RHBL   = relative hum. threshold in the boundary layer
(PID.TID 0000.0001) >#      RHIL   = rel. hum. threshold in intermed. layers for secondary mass flux
(PID.TID 0000.0001) >#      ENTMAX = max. entrainment as a fraction of cloud-base mass flux
(PID.TID 0000.0001) >#      SMF    = ratio between secondary and primary mass flux at cloud-base
(PID.TID 0000.0001) > &AIM_PAR_CNV
(PID.TID 0000.0001) > /
(PID.TID 0000.0001) >
(PID.TID 0000.0001) >#--   Constants for large-scale condensation (namelist AIM_PAR_LSC):
(PID.TID 0000.0001) >#      TRLSC  = Relaxation time (in hours) for specific humidity
(PID.TID 0000.0001) >#      RHLSC  = Maximum relative humidity threshold (at sigma=1)
(PID.TID 0000.0001) >#      DRHLSC = Vertical range of relative humidity threshold
(PID.TID 0000.0001) >#      QSMAX  = used to define the maximum latent heat release
(PID.TID 0000.0001) > &AIM_PAR_LSC
(PID.TID 0000.0001) > /
(PID.TID 0000.0001) >
(PID.TID 0000.0001) >#--   Radiation constants (namelist AIM_PAR_RAD):
(PID.TID 0000.0001) >#      RHCL1  = relative hum. corresponding to cloud cover = 0
(PID.TID 0000.0001) >#      RHCL2  = relative hum. corresponding to cloud cover = 1
(PID.TID 0000.0001) >#      QACL1  = specific hum. threshold for cloud cover in the upper troposphere
(PID.TID 0000.0001) >#      QACL2  = specific hum. threshold for cloud cover in the upper troposphere
(PID.TID 0000.0001) >#      ALBCL  = cloud albedo (for cloud cover = 1)
(PID.TID 0000.0001) >#      EPSSW  = fraction of incoming solar radiation absorbed by ozone
(PID.TID 0000.0001) >#      EPSLW  = fraction of surface LW radiation emitted directly to space
(PID.TID 0000.0001) >#      EMISFC = longwave surface emissivity
(PID.TID 0000.0001) >#--:            shortwave absorptivities (for dp = 10^5 Pa) :
(PID.TID 0000.0001) >#      ABSDRY = abs. of dry air      (visible band)
(PID.TID 0000.0001) >#      ABSAER = abs. of aerosols     (visible band)
(PID.TID 0000.0001) >#      ABSWV1 = abs. of water vapour (visible band, for dq = 1 g/kg)
(PID.TID 0000.0001) >#      ABSWV2 = abs. of water vapour (near IR band, for dq = 1 g/kg)
(PID.TID 0000.0001) >#      ABSCL1 = abs. of clouds       (visible band, constant term)
(PID.TID 0000.0001) >#      ABSCL2 = abs. of clouds       (visible band, for dw = 1 g/kg)
(PID.TID 0000.0001) >#--:            longwave absorptivities (per dp = 10^5 Pa) :
(PID.TID 0000.0001) >#      ABLWIN = abs. of air in "window" band
(PID.TID 0000.0001) >#      ABLCO2 = abs. of air in CO2 band
(PID.TID 0000.0001) >#      ABLWV1 = abs. of water vapour in H2O band 1 (weak),   for dq = 1 g/kg
(PID.TID 0000.0001) >#      ABLWV2 = abs. of water vapour in H2O band 2 (strong), for dq = 1 g/kg
(PID.TID 0000.0001) >#      ABLCL1 = abs. of clouds       in "window" band,       constant term
(PID.TID 0000.0001) >#      ABLCL2 = abs. of clouds       in "window" band,       for dw = 1 g/kg
(PID.TID 0000.0001) > &AIM_PAR_RAD
(PID.TID 0000.0001) > /
(PID.TID 0000.0001) >
(PID.TID 0000.0001) >#--   Constants for vertical dif. and sh. conv. (namelist AIM_PAR_VDI):
(PID.TID 0000.0001) >#      TRSHC  = relaxation time (in hours) for shallow convection
(PID.TID 0000.0001) >#      TRVDI  = relaxation time (in hours) for moisture diffusion
(PID.TID 0000.0001) >#      TRVDS  = relaxation time (in hours) for super-adiab. conditions
(PID.TID 0000.0001) >#      RHGRAD = maximum gradient of relative humidity (d_RH/d_sigma)
(PID.TID 0000.0001) >#      SEGRAD = minimum gradient of dry static energy (d_DSE/d_phi)
(PID.TID 0000.0001) > &AIM_PAR_VDI
(PID.TID 0000.0001) > /
(PID.TID 0000.0001) >
(PID.TID 0000.0001) 
(PID.TID 0000.0001)  AIM_READ_PHYSPARMS: finished reading data.aimphys
(PID.TID 0000.0001) 
(PID.TID 0000.0001) // ===================================
(PID.TID 0000.0001) // AIM physics parameters :
(PID.TID 0000.0001) // ===================================
(PID.TID 0000.0001) useLand =   /* use Land package for surf.BC over land  */
(PID.TID 0000.0001)                   T
(PID.TID 0000.0001)     ;
(PID.TID 0000.0001) aim_useFMsurfBC =   /* F.Molteni surf. BC scheme on/off flag */
(PID.TID 0000.0001)                   T
(PID.TID 0000.0001)     ;
(PID.TID 0000.0001) aim_useMMsurfFc =   /* Monthly Mean surf. Forcing on/off flag */
(PID.TID 0000.0001)                   F
(PID.TID 0000.0001)     ;
(PID.TID 0000.0001) aim_surfForc_TimePeriod = /* Length of forcing time period (s) */
(PID.TID 0000.0001)                 2.592000000000000E+06
(PID.TID 0000.0001)     ;
(PID.TID 0000.0001) aim_surfForc_NppCycle   = /* Number of time period per Cycle */
(PID.TID 0000.0001)                      12
(PID.TID 0000.0001)     ;
(PID.TID 0000.0001) aim_surfForc_TransRatio = /* transition ratio from one month to the next */
(PID.TID 0000.0001)                 1.000000000000000E+00
(PID.TID 0000.0001)     ;
(PID.TID 0000.0001) aim_surfPotTemp =   /* Surf Temp file in Pot.Temp on/off flag */
(PID.TID 0000.0001)                   F
(PID.TID 0000.0001)     ;
(PID.TID 0000.0001) aim_energPrecip = /* account for energy of precip. on/off flag */
(PID.TID 0000.0001)                   T
(PID.TID 0000.0001)     ;
(PID.TID 0000.0001) aim_splitSIOsFx = /* separate Sea-Ice & Ocean Flux on/off flag */
(PID.TID 0000.0001)                   T
(PID.TID 0000.0001)     ;
(PID.TID 0000.0001) aim_dragStrato= /* stratospheric-drag damping time scale (s) */
(PID.TID 0000.0001)                 2.592000000000000E+06
(PID.TID 0000.0001)     ;
(PID.TID 0000.0001) aim_clrSkyDiag = /* do clear-sky radiation diagnostics */
(PID.TID 0000.0001)                   F
(PID.TID 0000.0001)     ;
(PID.TID 0000.0001) aim_taveFreq =   /* Frequency^-1 for time-Aver. output (s) */
(PID.TID 0000.0001)                 2.592000000000000E+06
(PID.TID 0000.0001)     ;
(PID.TID 0000.0001) aim_diagFreq =   /* Frequency^-1 for diagnostic output (s) */
(PID.TID 0000.0001)                 2.592000000000000E+06
(PID.TID 0000.0001)     ;
(PID.TID 0000.0001) aim_tendFreq =   /* Frequency^-1 for tendencies output (s) */
(PID.TID 0000.0001)                 0.000000000000000E+00
(PID.TID 0000.0001)     ;
(PID.TID 0000.0001) aim_selectOceAlbedo =   /* Ocean albedo(latitude) flag */
(PID.TID 0000.0001)                       0
(PID.TID 0000.0001)     ;
(PID.TID 0000.0001) AIM_FOR:   SOLC =   /* Solar constant (area averaged) in W/m2 */
(PID.TID 0000.0001)                 3.420000000000000E+02
(PID.TID 0000.0001)     ;
(PID.TID 0000.0001) AIM_FOR:  OBLIQ =   /* Obliquity (degree) used with ALLOW_INSOLATION */
(PID.TID 0000.0001)                 2.345000000000000E+01
(PID.TID 0000.0001)     ;
(PID.TID 0000.0001) AIM_FOR: ALBSEA =   /* Albedo over sea [0-1]      */
(PID.TID 0000.0001)                 7.000000000000001E-02
(PID.TID 0000.0001)     ;
(PID.TID 0000.0001) AIM_FOR: ALBICE =   /* Albedo over sea ice (for ice fraction =1) */
(PID.TID 0000.0001)                 6.000000000000000E-01
(PID.TID 0000.0001)     ;
(PID.TID 0000.0001) AIM_FOR:  ALBSN =   /* Albedo over snow (for snow depth > SDALB) */
(PID.TID 0000.0001)                 6.000000000000000E-01
(PID.TID 0000.0001)     ;
(PID.TID 0000.0001) AIM_FOR:  SDALB =   /* Snow depth (mm H2O) corresp. maximum albedo */
(PID.TID 0000.0001)                 6.000000000000000E+01
(PID.TID 0000.0001)     ;
(PID.TID 0000.0001) AIM_FOR:  SWCAP =   /* Soil wetness at field capacity (Vol.fract.) */
(PID.TID 0000.0001)                 3.000000000000000E-01
(PID.TID 0000.0001)     ;
(PID.TID 0000.0001) AIM_FOR:  SWWIL =   /* Soil wetness at wilting point  (Vol.fract.) */
(PID.TID 0000.0001)                 1.700000000000000E-01
(PID.TID 0000.0001)     ;
(PID.TID 0000.0001) AIM_FOR: hSnowWetness=   /* snow depth corresp. maximum wetness (m) */
(PID.TID 0000.0001)                 1.000000000000000E-02
(PID.TID 0000.0001)     ;
(PID.TID 0000.0001) AIM_SFL: FWIND0 =   /* ratio of near-sfc wind to lowest-level wind */
(PID.TID 0000.0001)                 6.000000000000000E-01
(PID.TID 0000.0001)     ;
(PID.TID 0000.0001) AIM_SFL: FTEMP0 =  /* weight for near-sfc temp. extrapolation (0-1)*/
(PID.TID 0000.0001)                 1.000000000000000E+00
(PID.TID 0000.0001)     ;
(PID.TID 0000.0001) AIM_SFL:  FHUM0 =  /* weight for near-sfc spec.humid. extrap. (0-1)*/
(PID.TID 0000.0001)                 1.000000000000000E+00
(PID.TID 0000.0001)     ;
(PID.TID 0000.0001) AIM_SFL:    CDL =   /* drag coefficient for momentum over land */
(PID.TID 0000.0001)                 1.800000000000000E-03
(PID.TID 0000.0001)     ;
(PID.TID 0000.0001) AIM_SFL:    CDS =   /* drag coefficient for momentum over sea  */
(PID.TID 0000.0001)                 8.000000000000000E-04
(PID.TID 0000.0001)     ;
(PID.TID 0000.0001) AIM_SFL:    CHL =   /* heat exchange coefficient over land */
(PID.TID 0000.0001)                 1.200000000000000E-03
(PID.TID 0000.0001)     ;
(PID.TID 0000.0001) AIM_SFL:    CHS =   /* heat exchange coefficient over sea  */
(PID.TID 0000.0001)                 8.000000000000000E-04
(PID.TID 0000.0001)     ;
(PID.TID 0000.0001) AIM_SFL:  VGUST =   /* wind speed [m/s] for sub-grid-scale gusts */
(PID.TID 0000.0001)                 5.000000000000000E+00
(PID.TID 0000.0001)     ;
(PID.TID 0000.0001) AIM_SFL:  CTDAY =   /* daily-cycle correction (dTskin/dSSRad) */
(PID.TID 0000.0001)                 1.000000000000000E-02
(PID.TID 0000.0001)     ;
(PID.TID 0000.0001) AIM_SFL: DTHETA =   /* Pot.Temp. gradient for stability correction */
(PID.TID 0000.0001)                 3.000000000000000E+00
(PID.TID 0000.0001)     ;
(PID.TID 0000.0001) AIM_SFL: dTstab =   /* Pot.Temp. increment for stab.funct. derivative */
(PID.TID 0000.0001)                 1.000000000000000E+00
(PID.TID 0000.0001)     ;
(PID.TID 0000.0001) AIM_SFL:  FSTAB =   /* Amplitude of stability correction (fract.) */
(PID.TID 0000.0001)                 6.700000000000000E-01
(PID.TID 0000.0001)     ;
(PID.TID 0000.0001) AIM_SFL:  HDRAG =   /* Height scale for orographic correction */
(PID.TID 0000.0001)                 2.000000000000000E+03
(PID.TID 0000.0001)     ;
(PID.TID 0000.0001) AIM_SFL: FHDRAG =   /* Amplitude of orographic correction (fract.)*/
(PID.TID 0000.0001)                 8.000000000000000E-01
(PID.TID 0000.0001)     ;
(PID.TID 0000.0001) AIM_CNV:  PSMIN =   /* min norm.sfc.P. for occurrence of convect. */
(PID.TID 0000.0001)                 7.000000000000000E-01
(PID.TID 0000.0001)     ;
(PID.TID 0000.0001) AIM_CNV:  TRCNV =   /* time of relaxation [h] towards ref state */
(PID.TID 0000.0001)                 6.000000000000000E+00
(PID.TID 0000.0001)     ;
(PID.TID 0000.0001) AIM_CNV:    QBL =   /* specific hum. threshold in the Bound.layer */
(PID.TID 0000.0001)                 1.500000000000000E+01
(PID.TID 0000.0001)     ;
(PID.TID 0000.0001) AIM_CNV:   RHBL =   /* relative hum. threshold in the Bound.layer */
(PID.TID 0000.0001)                 8.000000000000000E-01
(PID.TID 0000.0001)     ;
(PID.TID 0000.0001) AIM_CNV:   RHIL =   /* rel.hum. threshold (intern) for 2nd mass.Flx*/
(PID.TID 0000.0001)                 7.000000000000000E-01
(PID.TID 0000.0001)     ;
(PID.TID 0000.0001) AIM_CNV: ENTMAX =   /* time of relaxation [h] towards neutral eq. */
(PID.TID 0000.0001)                 5.000000000000000E-01
(PID.TID 0000.0001)     ;
(PID.TID 0000.0001) AIM_CNV:    SMF =   /* ratio 2ndary/primary mass.Flx at cloud-base*/
(PID.TID 0000.0001)                 5.000000000000000E-01
(PID.TID 0000.0001)     ;
(PID.TID 0000.0001) AIM_LSC:  TRLSC =   /* relaxation time [h] for supersat. spec.hum. */
(PID.TID 0000.0001)                 4.000000000000000E+00
(PID.TID 0000.0001)     ;
(PID.TID 0000.0001) AIM_LSC:  RHLSC =   /* Max rel.humidity threshold (at sigma=1) */
(PID.TID 0000.0001)                 9.000000000000000E-01
(PID.TID 0000.0001)     ;
(PID.TID 0000.0001) AIM_LSC: DRHLSC =   /* Vertical range of rel.humidity threshold */
(PID.TID 0000.0001)                 1.000000000000000E-01
(PID.TID 0000.0001)     ;
(PID.TID 0000.0001) AIM_LSC:  QSMAX =   /* Define the maximum latent heat release */
(PID.TID 0000.0001)                 5.000000000000000E+01
(PID.TID 0000.0001)     ;
(PID.TID 0000.0001) AIM_RAD:  RHCL1 =   /*  rel.hum. corresponding to cloud cover = 0 */
(PID.TID 0000.0001)                 4.500000000000000E-01
(PID.TID 0000.0001)     ;
(PID.TID 0000.0001) AIM_RAD:  RHCL2 =   /*  rel.hum. corresponding to cloud cover = 1 */
(PID.TID 0000.0001)                 8.500000000000000E-01
(PID.TID 0000.0001)     ;
(PID.TID 0000.0001) AIM_RAD:  QACL1 =   /* spec.hum. threshold for cloud, upper trop. */
(PID.TID 0000.0001)                 1.000000000000000E-01
(PID.TID 0000.0001)     ;
(PID.TID 0000.0001) AIM_RAD:  QACL2 =   /* spec.hum. threshold for cloud, upper trop. */
(PID.TID 0000.0001)                 1.000000000000000E+00
(PID.TID 0000.0001)     ;
(PID.TID 0000.0001) AIM_RAD:  ALBCL =   /*  cloud albedo (for cloud cover = 1) */
(PID.TID 0000.0001)                 4.000000000000000E-01
(PID.TID 0000.0001)     ;
(PID.TID 0000.0001) AIM_RAD:  EPSSW =   /*  fract. of inc.solar rad. absorbed by ozone */
(PID.TID 0000.0001)                 1.500000000000000E-02
(PID.TID 0000.0001)     ;
(PID.TID 0000.0001) AIM_RAD:  EPSLW =   /*  fract. of sfc LW emitted directly to space */
(PID.TID 0000.0001)                 0.000000000000000E+00
(PID.TID 0000.0001)     ;
(PID.TID 0000.0001) AIM_RAD: EMISFC =   /*  longwave surface emissivity */
(PID.TID 0000.0001)                 9.800000000000000E-01
(PID.TID 0000.0001)     ;
(PID.TID 0000.0001)  AIM_RAD : ShortWave absorptivities (for dp = 10^5 Pa) :
(PID.TID 0000.0001) AIM_RAD: ABSDRY =   /* abs. of dry air (visible band) */
(PID.TID 0000.0001)                 3.300000000000000E-02
(PID.TID 0000.0001)     ;
(PID.TID 0000.0001) AIM_RAD: ABSAER =   /* abs. of aerosols (visible band) */
(PID.TID 0000.0001)                 3.300000000000000E-02
(PID.TID 0000.0001)     ;
(PID.TID 0000.0001) AIM_RAD: ABSWV1 =   /* abs. of water vap. (vis. band)(/dq, 1g/kg) */
(PID.TID 0000.0001)                 2.200000000000000E-02
(PID.TID 0000.0001)     ;
(PID.TID 0000.0001) AIM_RAD: ABSWV2 =   /* abs. of water vap.(near IR bd)(/dq, 1g/kg) */
(PID.TID 0000.0001)                 1.500000000000000E+01
(PID.TID 0000.0001)     ;
(PID.TID 0000.0001) AIM_RAD: ABSCL1 =   /* abs. of clouds (vis.band)(constant term) */
(PID.TID 0000.0001)                 0.000000000000000E+00
(PID.TID 0000.0001)     ;
(PID.TID 0000.0001) AIM_RAD: ABSCL2 =   /* abs. of clouds (vis.band) (/dw, 1g/kg) */
(PID.TID 0000.0001)                 1.000000000000000E-02
(PID.TID 0000.0001)     ;
(PID.TID 0000.0001) AIM_RAD: ABLWIN =   /* abs. of air in "window" band */
(PID.TID 0000.0001)                 7.000000000000000E-01
(PID.TID 0000.0001)     ;
(PID.TID 0000.0001) AIM_RAD: ABLCO2 =   /* abs. of air in CO2 band */
(PID.TID 0000.0001)                 4.000000000000000E+00
(PID.TID 0000.0001)     ;
(PID.TID 0000.0001) AIM_RAD: ABLWV1 =   /* abs. of Water vap. H2O bd-1(weak)(/dq,1g/kg)*/
(PID.TID 0000.0001)                 7.000000000000000E-01
(PID.TID 0000.0001)     ;
(PID.TID 0000.0001) AIM_RAD: ABLWV2 =   /* abs. of W. vap., H2O bd-2(strong)(/dq,1g/kg)*/
(PID.TID 0000.0001)                 5.000000000000000E+01
(PID.TID 0000.0001)     ;
(PID.TID 0000.0001) AIM_RAD: ABLCL1 =   /* abs. of clouds in window band (const term) */
(PID.TID 0000.0001)                 1.200000000000000E+01
(PID.TID 0000.0001)     ;
(PID.TID 0000.0001) AIM_RAD: ABLCL2 =   /* abs. of clouds in window band (/dw, 1g/kg) */
(PID.TID 0000.0001)                 0.000000000000000E+00
(PID.TID 0000.0001)     ;
(PID.TID 0000.0001) AIM_VDI:  TRSHC =   /* relaxation time [h] for shallow convection */
(PID.TID 0000.0001)                 2.400000000000000E+01
(PID.TID 0000.0001)     ;
(PID.TID 0000.0001) AIM_VDI:  TRVDI =   /* relaxation time [h] for moisture diffusion */
(PID.TID 0000.0001)                 4.000000000000000E+01
(PID.TID 0000.0001)     ;
(PID.TID 0000.0001) AIM_VDI:  TRVDS =   /* relaxation time [h] for super-adiab. cond. */
(PID.TID 0000.0001)                 5.000000000000000E+00
(PID.TID 0000.0001)     ;
(PID.TID 0000.0001) AIM_VDI: RHGRAD =   /* max gradient of rel.humidity (d_RH/d_sigma)*/
(PID.TID 0000.0001)                 5.000000000000000E-01
(PID.TID 0000.0001)     ;
(PID.TID 0000.0001) AIM_VDI: SEGRAD =   /* max grad. of dry static Energy(d_DSE/d_phi)*/
(PID.TID 0000.0001)                 1.000000000000000E-01
(PID.TID 0000.0001)     ;
(PID.TID 0000.0001)  MDS_READ_FIELD: opening global file: landFrc.cpl_FM.bin
(PID.TID 0000.0001)  LAND_READPARMS: opening data.land
(PID.TID 0000.0001)  OPEN_COPY_DATA_FILE: opening file data.land
(PID.TID 0000.0001) // =======================================================
(PID.TID 0000.0001) // Parameter file "data.land"
(PID.TID 0000.0001) // =======================================================
(PID.TID 0000.0001) ># Land package parameters:
(PID.TID 0000.0001) >
(PID.TID 0000.0001) >#--  Land model parameter (namelist LAND_MODEL_PAR):
(PID.TID 0000.0001) >#     land_calc_grT  :: step forward ground Temperature
(PID.TID 0000.0001) >#     land_calc_grW  :: step forward soil moiture
(PID.TID 0000.0001) >#     land_impl_grT  :: solve ground Temperature implicitly
(PID.TID 0000.0001) >#     land_calc_snow :: step forward snow thickness
(PID.TID 0000.0001) >#     land_calc_alb  :: compute albedo of snow over land
(PID.TID 0000.0001) >#     land_oldPickup :: restart from an old pickup (=before checkpoint 52l)
(PID.TID 0000.0001) >#     land_grT_iniFile  :: File containing initial ground Temp.
(PID.TID 0000.0001) >#     land_grW_iniFile  :: File containing initial ground Water.
(PID.TID 0000.0001) >#     land_snow_iniFile :: File containing initial snow thickness.
(PID.TID 0000.0001) >#     land_deltaT   :: land model time-step
(PID.TID 0000.0001) >#     land_taveFreq :: Frequency^-1 for time-Aver. output (s)
(PID.TID 0000.0001) >#     land_diagFreq :: Frequency^-1 for diagnostic output (s)
(PID.TID 0000.0001) >#     land_monFreq  :: Frequency^-1 for monitor    output (s)
(PID.TID 0000.0001) >#     land_dzF      :: layer thickness
(PID.TID 0000.0001) > &LAND_MODEL_PAR
(PID.TID 0000.0001) ># land_calc_grT =.FALSE.,
(PID.TID 0000.0001) ># land_calc_grW =.FALSE.,
(PID.TID 0000.0001) ># land_impl_grT =.FALSE.,
(PID.TID 0000.0001) ># land_calc_snow=.FALSE.,
(PID.TID 0000.0001) ># land_calc_alb =.FALSE.,
(PID.TID 0000.0001) >  land_grT_iniFile='land_grT_ini.cpl.bin',
(PID.TID 0000.0001) >  land_grW_iniFile='land_grW_ini.mn.bin',
(PID.TID 0000.0001) >  land_snow_iniFile='land_snw_ini.cpl.bin',
(PID.TID 0000.0001) ># land_oldPickup=.TRUE.,
(PID.TID 0000.0001) >  land_dzF= 0.1, 4.0,
(PID.TID 0000.0001) ># land_diagFreq=2592000.,
(PID.TID 0000.0001) > /
(PID.TID 0000.0001) >
(PID.TID 0000.0001) >#--  Physical constants (namelist LAND_PHYS_PAR):
(PID.TID 0000.0001) >#     land_grdLambda  :: Thermal conductivity of the ground (W/m/K)
(PID.TID 0000.0001) >#     land_heatCs     :: Heat capacity of dry soil (J/m3/K)
(PID.TID 0000.0001) >#     land_CpWater    :: Heat capacity of water    (J/kg/K)
(PID.TID 0000.0001) >#     land_wTauDiff   :: soil moisture diffusion time scale
(PID.TID 0000.0001) >#     land_waterCap   :: field capacity per meter of soil
(PID.TID 0000.0001) >#     land_fractRunOff:: fraction of water in excess which run-off
(PID.TID 0000.0001) >#     land_rhoLiqW    :: density of liquid water (kg/m3)
(PID.TID 0000.0001) >#     land_rhoSnow    :: density of snow (kg/m3)
(PID.TID 0000.0001) >#     land_Lfreez     :: Latent heat of freezing (J/kg)
(PID.TID 0000.0001) >#     land_hMaxSnow   :: Maximum snow-thickness  (m)
(PID.TID 0000.0001) >#     diffKsnow       :: thermal conductivity of snow (W/m/K)
(PID.TID 0000.0001) >#     timeSnowAge     :: snow aging time scale   (s)
(PID.TID 0000.0001) >#     hNewSnowAge     :: new snow thickness that refresh the snow-age (by 1/e)
(PID.TID 0000.0001) >#     albColdSnow     :: albedo of cold (=dry) new snow (Tsfc < -10)
(PID.TID 0000.0001) >#     albWarmSnow     :: albedo of warm (=wet) new snow (Tsfc = 0)
(PID.TID 0000.0001) >#     albOldSnow      :: albedo of old snow (snowAge > 35.d)
(PID.TID 0000.0001) >#     hAlbSnow        :: snow thickness for albedo transition: snow/ground
(PID.TID 0000.0001) > &LAND_PHYS_PAR
(PID.TID 0000.0001) ># land_Lfreez=0.,
(PID.TID 0000.0001) >  land_hMaxSnow=10.,
(PID.TID 0000.0001) > /
(PID.TID 0000.0001) 
(PID.TID 0000.0001)  LAND_READPARMS: finished reading data.land
(PID.TID 0000.0001) 
(PID.TID 0000.0001) // ===================================
(PID.TID 0000.0001) // Land package parameters :
(PID.TID 0000.0001) // ===================================
(PID.TID 0000.0001) land_calc_grT = /* step forward ground Temp. on/off flag */
(PID.TID 0000.0001)                   T
(PID.TID 0000.0001)     ;
(PID.TID 0000.0001) land_calc_grW = /* step forward soil moiture on/off flag */
(PID.TID 0000.0001)                   T
(PID.TID 0000.0001)     ;
(PID.TID 0000.0001) land_impl_grT = /* solve ground temperature implicitly */
(PID.TID 0000.0001)                   T
(PID.TID 0000.0001)     ;
(PID.TID 0000.0001) land_calc_snow = /* step forward snow thickness */
(PID.TID 0000.0001)                   T
(PID.TID 0000.0001)     ;
(PID.TID 0000.0001) land_calc_alb = /* compute land+snow albedo */
(PID.TID 0000.0001)                   T
(PID.TID 0000.0001)     ;
(PID.TID 0000.0001) land_grT_iniFile = /* Initial ground-Temp Input-File */
(PID.TID 0000.0001)                 land_grT_ini.cpl.bin
(PID.TID 0000.0001)     ;
(PID.TID 0000.0001) land_grW_iniFile = /* Initial soil-Water Input-File */
(PID.TID 0000.0001)                 land_grW_ini.mn.bin
(PID.TID 0000.0001)     ;
(PID.TID 0000.0001) land_snow_iniFile= /* Initial snow thickness Input-File */
(PID.TID 0000.0001)                 land_grW_ini.mn.bin
(PID.TID 0000.0001)     ;
(PID.TID 0000.0001) land_deltaT = /* land model Time-Step (s) */
(PID.TID 0000.0001)                 4.500000000000000E+02
(PID.TID 0000.0001)     ;
(PID.TID 0000.0001) land_taveFreq = /* Frequency^-1 for time-Aver. output (s) */
(PID.TID 0000.0001)                 2.592000000000000E+06
(PID.TID 0000.0001)     ;
(PID.TID 0000.0001) land_diagFreq = /* Frequency^-1 for diagnostic output (s) */
(PID.TID 0000.0001)                 2.592000000000000E+06
(PID.TID 0000.0001)     ;
(PID.TID 0000.0001) land_monFreq = /* Frequency^-1 for monitor output (s) */
(PID.TID 0000.0001)                 2.592000000000000E+06
(PID.TID 0000.0001)     ;
(PID.TID 0000.0001) land_dzF = /* layer thickness ( m ) */
(PID.TID 0000.0001)                 1.000000000000000E-01,      /* K =  1 */
(PID.TID 0000.0001)                 4.000000000000000E+00       /* K =  2 */
(PID.TID 0000.0001)     ;
(PID.TID 0000.0001) land_rec_dzC= /* recip. vertical spacing (m-1) */
(PID.TID 0000.0001)                 2.000000000000000E+01,      /* K =  1 */
(PID.TID 0000.0001)                 4.878048780487805E-01       /* K =  2 */
(PID.TID 0000.0001)     ;
(PID.TID 0000.0001) land_timeave_mdsio = /* use MDSIO for Tave output */
(PID.TID 0000.0001)                   T
(PID.TID 0000.0001)     ;
(PID.TID 0000.0001) land_timeave_mnc = /* use MNC for Tave output */
(PID.TID 0000.0001)                   F
(PID.TID 0000.0001)     ;
(PID.TID 0000.0001) land_snapshot_mdsio = /* use MDSIO for snapshot output */
(PID.TID 0000.0001)                   T
(PID.TID 0000.0001)     ;
(PID.TID 0000.0001) land_snapshot_mnc = /* use MNC for snapshot output */
(PID.TID 0000.0001)                   F
(PID.TID 0000.0001)     ;
(PID.TID 0000.0001) land_mon_stdio = /* use STDOUT for monitor output */
(PID.TID 0000.0001)                   T
(PID.TID 0000.0001)     ;
(PID.TID 0000.0001) land_mon_mnc = /* use MNC for monitor output */
(PID.TID 0000.0001)                   F
(PID.TID 0000.0001)     ;
(PID.TID 0000.0001) land_pickup_write_mnc = /* use MNC for writing pickups */
(PID.TID 0000.0001)                   F
(PID.TID 0000.0001)     ;
(PID.TID 0000.0001) land_pickup_read_mnc = /* use MNC for reading pickups */
(PID.TID 0000.0001)                   F
(PID.TID 0000.0001)     ;
(PID.TID 0000.0001) land_grdLambda = /* Thermal conductivity of the ground (W/m/K)*/
(PID.TID 0000.0001)                 4.200000000000000E-01
(PID.TID 0000.0001)     ;
(PID.TID 0000.0001) land_heatCs = /* Heat capacity of dry soil (J/m3/K) */
(PID.TID 0000.0001)                 1.130000000000000E+06
(PID.TID 0000.0001)     ;
(PID.TID 0000.0001) land_CpWater = /* Heat capacity of water    (J/kg/K) */
(PID.TID 0000.0001)                 4.200000000000000E+03
(PID.TID 0000.0001)     ;
(PID.TID 0000.0001) land_wTauDiff = /* soil moisture diffusion time scale (s) */
(PID.TID 0000.0001)                 1.728000000000000E+05
(PID.TID 0000.0001)     ;
(PID.TID 0000.0001) land_waterCap = /* field capacity per meter of soil (1) */
(PID.TID 0000.0001)                 2.400000000000000E-01
(PID.TID 0000.0001)     ;
(PID.TID 0000.0001) land_fractRunOff= /* fraction of water in excess which run-off */
(PID.TID 0000.0001)                 5.000000000000000E-01
(PID.TID 0000.0001)     ;
(PID.TID 0000.0001) land_rhoLiqW = /* density of liquid water (kg/m3) */
(PID.TID 0000.0001)                 1.000000000000000E+03
(PID.TID 0000.0001)     ;
(PID.TID 0000.0001) land_rhoSnow = /* density of snow (kg/m3) */
(PID.TID 0000.0001)                 3.300000000000000E+02
(PID.TID 0000.0001)     ;
(PID.TID 0000.0001) land_Lfreez = /* Latent heat of freezing (J/kg) */
(PID.TID 0000.0001)                 3.340000000000000E+05
(PID.TID 0000.0001)     ;
(PID.TID 0000.0001) land_hMaxSnow = /* maximum snow-thickness (m) */
(PID.TID 0000.0001)                 1.000000000000000E+01
(PID.TID 0000.0001)     ;
(PID.TID 0000.0001) diffKsnow = /* thermal conductivity of snow (W/m/K) */
(PID.TID 0000.0001)                 3.000000000000000E-01
(PID.TID 0000.0001)     ;
(PID.TID 0000.0001) timeSnowAge = /* snow aging time scale   (s) */
(PID.TID 0000.0001)                 4.320000000000000E+06
(PID.TID 0000.0001)     ;
(PID.TID 0000.0001) hNewSnowAge = /* new snow thickness to refresh snow-age by 1/e */
(PID.TID 0000.0001)                 2.000000000000000E-03
(PID.TID 0000.0001)     ;
(PID.TID 0000.0001) albColdSnow = /* albedo of cold (=dry) new snow */
(PID.TID 0000.0001)                 8.500000000000000E-01
(PID.TID 0000.0001)     ;
(PID.TID 0000.0001) albWarmSnow = /* albedo of warm (=wet) new snow */
(PID.TID 0000.0001)                 7.000000000000000E-01
(PID.TID 0000.0001)     ;
(PID.TID 0000.0001) tempSnowAlbL = /* Temp. transition from ColdSnow to WarmSnow Alb. (oC) */
(PID.TID 0000.0001)                -1.000000000000000E+01
(PID.TID 0000.0001)     ;
(PID.TID 0000.0001) albOldSnow = /* albedo of old snow (snowAge >35.d)*/
(PID.TID 0000.0001)                 5.500000000000000E-01
(PID.TID 0000.0001)     ;
(PID.TID 0000.0001) hAlbSnow = /* snow depth for albedo transition */
(PID.TID 0000.0001)                 3.000000000000000E-01
(PID.TID 0000.0001)     ;
(PID.TID 0000.0001) INI_GLOBAL_DOMAIN: Found  24 CS-corner Pts in the domain
(PID.TID 0000.0001) %MON fCori_max                    =   1.4574827780704E-04
(PID.TID 0000.0001) %MON fCori_min                    =  -1.4574827780704E-04
(PID.TID 0000.0001) %MON fCori_mean                   =   0.0000000000000E+00
(PID.TID 0000.0001) %MON fCori_sd                     =   8.4202189509968E-05
(PID.TID 0000.0001) %MON fCoriG_max                   =   1.4584247033981E-04
(PID.TID 0000.0001) %MON fCoriG_min                   =  -1.4584247033981E-04
(PID.TID 0000.0001) %MON fCoriG_mean                  =   2.2587545260115E-21
(PID.TID 0000.0001) %MON fCoriG_sd                    =   8.4202189509968E-05
(PID.TID 0000.0001) %MON fCoriCos_max                 =   1.4580166994612E-04
(PID.TID 0000.0001) %MON fCoriCos_min                 =   5.2407700865903E-06
(PID.TID 0000.0001) %MON fCoriCos_mean                =   1.1514045869113E-04
(PID.TID 0000.0001) %MON fCoriCos_sd                  =   3.0375849106513E-05
(PID.TID 0000.0001) INI_CG2D: CG2D normalisation factor =  9.9119603843467461E-06
(PID.TID 0000.0001) INI_CG2D: cg2dTolerance = 1.123144856357769E-10 (Area=5.0990436378E+14)
(PID.TID 0000.0001) 
(PID.TID 0000.0001) // =======================================================
(PID.TID 0000.0001) // Model configuration
(PID.TID 0000.0001) // =======================================================
(PID.TID 0000.0001) //
(PID.TID 0000.0001) // "Physical" paramters ( PARM01 in namelist )
(PID.TID 0000.0001) //
(PID.TID 0000.0001) buoyancyRelation = /* Type of relation to get Buoyancy */
(PID.TID 0000.0001)               'ATMOSPHERIC'
(PID.TID 0000.0001)     ;
(PID.TID 0000.0001) fluidIsAir   =  /* fluid major constituent is Air */
(PID.TID 0000.0001)                   T
(PID.TID 0000.0001)     ;
(PID.TID 0000.0001) fluidIsWater =  /* fluid major constituent is Water */
(PID.TID 0000.0001)                   F
(PID.TID 0000.0001)     ;
(PID.TID 0000.0001) usingPCoords =  /* use p (or p*) vertical coordinate */
(PID.TID 0000.0001)                   T
(PID.TID 0000.0001)     ;
(PID.TID 0000.0001) usingZCoords =  /* use z (or z*) vertical coordinate */
(PID.TID 0000.0001)                   F
(PID.TID 0000.0001)     ;
(PID.TID 0000.0001) tRef =   /* Reference temperature profile ( oC or K ) */
(PID.TID 0000.0001)                 2.896000000000000E+02,      /* K =  1 */
(PID.TID 0000.0001)                 2.981000000000000E+02,      /* K =  2 */
(PID.TID 0000.0001)                 3.145000000000000E+02,      /* K =  3 */
(PID.TID 0000.0001)                 3.358000000000000E+02,      /* K =  4 */
(PID.TID 0000.0001)                 4.374000000000000E+02       /* K =  5 */
(PID.TID 0000.0001)     ;
(PID.TID 0000.0001) sRef =   /* Reference salinity profile ( psu ) */
(PID.TID 0000.0001)     5 @  0.000000000000000E+00              /* K =  1:  5 */
(PID.TID 0000.0001)     ;
(PID.TID 0000.0001) viscAh  =   /* Lateral eddy viscosity ( m^2/s ) */
(PID.TID 0000.0001)                 0.000000000000000E+00
(PID.TID 0000.0001)     ;
(PID.TID 0000.0001) viscAhMax = /* Maximum lateral eddy viscosity ( m^2/s ) */
(PID.TID 0000.0001)                 1.000000000000000E+21
(PID.TID 0000.0001)     ;
(PID.TID 0000.0001) viscAhGrid = /* Grid dependent lateral eddy viscosity ( non-dim. ) */
(PID.TID 0000.0001)                 0.000000000000000E+00
(PID.TID 0000.0001)     ;
(PID.TID 0000.0001) useFullLeith = /* Use Full Form of Leith Viscosity on/off flag*/
(PID.TID 0000.0001)                   F
(PID.TID 0000.0001)     ;
(PID.TID 0000.0001) useStrainTensionVisc= /* Use StrainTension Form of Viscous Operator flag*/
(PID.TID 0000.0001)                   F
(PID.TID 0000.0001)     ;
(PID.TID 0000.0001) useAreaViscLength = /* Use area for visc length instead of geom. mean*/
(PID.TID 0000.0001)                   F
(PID.TID 0000.0001)     ;
(PID.TID 0000.0001) viscC2leith = /* Leith harmonic visc. factor (on grad(vort),non-dim.) */
(PID.TID 0000.0001)                 0.000000000000000E+00
(PID.TID 0000.0001)     ;
(PID.TID 0000.0001) viscC2leithD = /* Leith harmonic viscosity factor (on grad(div),non-dim.)*/
(PID.TID 0000.0001)                 0.000000000000000E+00
(PID.TID 0000.0001)     ;
(PID.TID 0000.0001) viscC2smag = /* Smagorinsky harmonic viscosity factor (non-dim.) */
(PID.TID 0000.0001)                 0.000000000000000E+00
(PID.TID 0000.0001)     ;
(PID.TID 0000.0001) viscA4  =   /* Lateral biharmonic viscosity ( m^4/s ) */
(PID.TID 0000.0001)                 0.000000000000000E+00
(PID.TID 0000.0001)     ;
(PID.TID 0000.0001) viscA4Max = /* Maximum biharmonic viscosity ( m^2/s ) */
(PID.TID 0000.0001)                 1.000000000000000E+21
(PID.TID 0000.0001)     ;
(PID.TID 0000.0001) viscA4Grid = /* Grid dependent biharmonic viscosity ( non-dim. ) */
(PID.TID 0000.0001)                 0.000000000000000E+00
(PID.TID 0000.0001)     ;
(PID.TID 0000.0001) viscC4leith = /* Leith biharm viscosity factor (on grad(vort), non-dim.)*/
(PID.TID 0000.0001)                 0.000000000000000E+00
(PID.TID 0000.0001)     ;
(PID.TID 0000.0001) viscC4leithD = /* Leith biharm viscosity factor (on grad(div), non-dim.) */
(PID.TID 0000.0001)                 0.000000000000000E+00
(PID.TID 0000.0001)     ;
(PID.TID 0000.0001) viscC4Smag = /* Smagorinsky biharm viscosity factor (non-dim) */
(PID.TID 0000.0001)                 0.000000000000000E+00
(PID.TID 0000.0001)     ;
(PID.TID 0000.0001) no_slip_sides =  /* Viscous BCs: No-slip sides */
(PID.TID 0000.0001)                   F
(PID.TID 0000.0001)     ;
(PID.TID 0000.0001) sideDragFactor = /* side-drag scaling factor (non-dim) */
(PID.TID 0000.0001)                 2.000000000000000E+00
(PID.TID 0000.0001)     ;
(PID.TID 0000.0001) viscArNr = /* vertical profile of vertical viscosity (Pa^2/s )*/
(PID.TID 0000.0001)     5 @  0.000000000000000E+00              /* K =  1:  5 */
(PID.TID 0000.0001)     ;
(PID.TID 0000.0001) no_slip_bottom =  /* Viscous BCs: No-slip bottom */
(PID.TID 0000.0001)                   F
(PID.TID 0000.0001)     ;
(PID.TID 0000.0001) bottomDragLinear = /* linear bottom-drag coefficient ( m/s ) */
(PID.TID 0000.0001)                 0.000000000000000E+00
(PID.TID 0000.0001)     ;
(PID.TID 0000.0001) bottomDragQuadratic = /* quadratic bottom-drag coefficient (-) */
(PID.TID 0000.0001)                 0.000000000000000E+00
(PID.TID 0000.0001)     ;
(PID.TID 0000.0001) diffKhT =   /* Laplacian diffusion of heat laterally ( m^2/s ) */
(PID.TID 0000.0001)                 0.000000000000000E+00
(PID.TID 0000.0001)     ;
(PID.TID 0000.0001) diffK4T =   /* Biharmonic diffusion of heat laterally ( m^4/s ) */
(PID.TID 0000.0001)                 0.000000000000000E+00
(PID.TID 0000.0001)     ;
(PID.TID 0000.0001) diffKhS =   /* Laplacian diffusion of salt laterally ( m^2/s ) */
(PID.TID 0000.0001)                 0.000000000000000E+00
(PID.TID 0000.0001)     ;
(PID.TID 0000.0001) diffK4S =   /* Biharmonic diffusion of salt laterally ( m^4/s ) */
(PID.TID 0000.0001)                 0.000000000000000E+00
(PID.TID 0000.0001)     ;
(PID.TID 0000.0001) diffKrNrT = /* vertical profile of vertical diffusion of Temp (Pa^2/s )*/
(PID.TID 0000.0001)     5 @  0.000000000000000E+00              /* K =  1:  5 */
(PID.TID 0000.0001)     ;
(PID.TID 0000.0001) diffKrNrS = /* vertical profile of vertical diffusion of Salt (Pa^2/s )*/
(PID.TID 0000.0001)     5 @  0.000000000000000E+00              /* K =  1:  5 */
(PID.TID 0000.0001)     ;
(PID.TID 0000.0001) diffKrBL79surf = /* Surface diffusion for Bryan and Lewis 79 ( m^2/s ) */
(PID.TID 0000.0001)                 0.000000000000000E+00
(PID.TID 0000.0001)     ;
(PID.TID 0000.0001) diffKrBL79deep = /* Deep diffusion for Bryan and Lewis 1979 ( m^2/s ) */
(PID.TID 0000.0001)                 0.000000000000000E+00
(PID.TID 0000.0001)     ;
(PID.TID 0000.0001) diffKrBL79scl = /* Depth scale for Bryan and Lewis 1979 ( m ) */
(PID.TID 0000.0001)                 2.000000000000000E+02
(PID.TID 0000.0001)     ;
(PID.TID 0000.0001) diffKrBL79Ho = /* Turning depth for Bryan and Lewis 1979 ( m ) */
(PID.TID 0000.0001)                -2.000000000000000E+03
(PID.TID 0000.0001)     ;
(PID.TID 0000.0001) ivdc_kappa = /* Implicit Vertical Diffusivity for Convection (Pa^2/s) */
(PID.TID 0000.0001)                 0.000000000000000E+00
(PID.TID 0000.0001)     ;
(PID.TID 0000.0001) hMixCriteria=  /* Criteria for mixed-layer diagnostic */
(PID.TID 0000.0001)                -8.000000000000000E-01
(PID.TID 0000.0001)     ;
(PID.TID 0000.0001) dRhoSmall =  /* Parameter for mixed-layer diagnostic */
(PID.TID 0000.0001)                 1.000000000000000E-06
(PID.TID 0000.0001)     ;
(PID.TID 0000.0001) hMixSmooth=  /* Smoothing parameter for mixed-layer diagnostic */
(PID.TID 0000.0001)                 0.000000000000000E+00
(PID.TID 0000.0001)     ;
(PID.TID 0000.0001) eosType =  /* Type of Equation of State */
(PID.TID 0000.0001)               'IDEALG'
(PID.TID 0000.0001)     ;
(PID.TID 0000.0001) celsius2K = /* 0 degree Celsius converted to Kelvin ( K ) */
(PID.TID 0000.0001)                 2.731500000000000E+02
(PID.TID 0000.0001)     ;
(PID.TID 0000.0001) atm_Rd =  /* gas constant for dry air ( J/kg/K ) */
(PID.TID 0000.0001)                 2.868571428571428E+02
(PID.TID 0000.0001)     ;
(PID.TID 0000.0001) atm_Cp =  /* specific heat (Cp) of dry air ( J/kg/K ) */
(PID.TID 0000.0001)                 1.004000000000000E+03
(PID.TID 0000.0001)     ;
(PID.TID 0000.0001) atm_kappa =  /* kappa (=Rd/Cp ) of dry air */
(PID.TID 0000.0001)                 2.857142857142857E-01
(PID.TID 0000.0001)     ;
(PID.TID 0000.0001) atm_Rq = /* water vap. specific vol. anomaly relative to dry air */
(PID.TID 0000.0001)                 6.078000000000000E-04
(PID.TID 0000.0001)     ;
(PID.TID 0000.0001) atm_Po =  /* standard reference pressure ( Pa ) */
(PID.TID 0000.0001)                 1.000000000000000E+05
(PID.TID 0000.0001)     ;
(PID.TID 0000.0001) integr_GeoPot =  /* select how the geopotential is integrated */
(PID.TID 0000.0001)                       2
(PID.TID 0000.0001)     ;
(PID.TID 0000.0001) selectFindRoSurf=  /* select how Surf.Ref. pressure is defined */
(PID.TID 0000.0001)                       1
(PID.TID 0000.0001)     ;
(PID.TID 0000.0001) rhoConst  = /* Reference density (Boussinesq)  ( kg/m^3 ) */
(PID.TID 0000.0001)                 9.998000000000000E+02
(PID.TID 0000.0001)     ;
(PID.TID 0000.0001) rhoFacC = /* normalized Reference density @ cell-Center (-) */
(PID.TID 0000.0001)     5 @  1.000000000000000E+00              /* K =  1:  5 */
(PID.TID 0000.0001)     ;
(PID.TID 0000.0001) rhoFacF = /* normalized Reference density @ W-Interface (-) */
(PID.TID 0000.0001)     6 @  1.000000000000000E+00              /* K =  1:  6 */
(PID.TID 0000.0001)     ;
(PID.TID 0000.0001) rhoConstFresh = /* Fresh-water reference density ( kg/m^3 ) */
(PID.TID 0000.0001)                 1.000000000000000E+03
(PID.TID 0000.0001)     ;
(PID.TID 0000.0001) gravity =   /* Gravitational acceleration ( m/s^2 ) */
(PID.TID 0000.0001)                 9.810000000000000E+00
(PID.TID 0000.0001)     ;
(PID.TID 0000.0001) gBaro =   /* Barotropic gravity ( m/s^2 ) */
(PID.TID 0000.0001)                 9.810000000000000E+00
(PID.TID 0000.0001)     ;
(PID.TID 0000.0001) rotationPeriod =   /* Rotation Period ( s ) */
(PID.TID 0000.0001)                 8.616400000000000E+04
(PID.TID 0000.0001)     ;
(PID.TID 0000.0001) omega =   /* Angular velocity ( rad/s ) */
(PID.TID 0000.0001)                 7.292123516990375E-05
(PID.TID 0000.0001)     ;
(PID.TID 0000.0001) f0 =   /* Reference coriolis parameter ( 1/s ) */
(PID.TID 0000.0001)                 1.000000000000000E-04
(PID.TID 0000.0001)     ;
(PID.TID 0000.0001) beta =   /* Beta ( 1/(m.s) ) */
(PID.TID 0000.0001)                 9.999999999999999E-12
(PID.TID 0000.0001)     ;
(PID.TID 0000.0001) fPrime =   /* Second coriolis parameter ( 1/s ) */
(PID.TID 0000.0001)                 0.000000000000000E+00
(PID.TID 0000.0001)     ;
(PID.TID 0000.0001) rigidLid =   /* Rigid lid on/off flag */
(PID.TID 0000.0001)                   F
(PID.TID 0000.0001)     ;
(PID.TID 0000.0001) implicitFreeSurface =   /* Implicit free surface on/off flag */
(PID.TID 0000.0001)                   T
(PID.TID 0000.0001)     ;
(PID.TID 0000.0001) freeSurfFac =   /* Implicit free surface factor */
(PID.TID 0000.0001)                 1.000000000000000E+00
(PID.TID 0000.0001)     ;
(PID.TID 0000.0001) implicSurfPress =  /* Surface Pressure implicit factor (0-1)*/
(PID.TID 0000.0001)                 1.000000000000000E+00
(PID.TID 0000.0001)     ;
(PID.TID 0000.0001) implicDiv2Dflow =  /* Barot. Flow Div. implicit factor (0-1)*/
(PID.TID 0000.0001)                 1.000000000000000E+00
(PID.TID 0000.0001)     ;
(PID.TID 0000.0001) uniformLin_PhiSurf = /* use uniform Bo_surf on/off flag*/
(PID.TID 0000.0001)                   F
(PID.TID 0000.0001)     ;
(PID.TID 0000.0001) uniformFreeSurfLev = /* free-surface level-index is uniform */
(PID.TID 0000.0001)                   F
(PID.TID 0000.0001)     ;
(PID.TID 0000.0001) hFacMin =   /* minimum partial cell factor (hFac) */
(PID.TID 0000.0001)                 2.000000000000000E-01
(PID.TID 0000.0001)     ;
(PID.TID 0000.0001) hFacMinDr = /* minimum partial cell thickness (Pa) */
(PID.TID 0000.0001)                 2.000000000000000E-01
(PID.TID 0000.0001)     ;
(PID.TID 0000.0001) exactConserv =  /* Exact Volume Conservation on/off flag*/
(PID.TID 0000.0001)                   T
(PID.TID 0000.0001)     ;
(PID.TID 0000.0001) linFSConserveTr = /* Tracer correction for Lin Free Surface on/off flag*/
(PID.TID 0000.0001)                   F
(PID.TID 0000.0001)     ;
(PID.TID 0000.0001) nonlinFreeSurf = /* Non-linear Free Surf. options (-1,0,1,2,3)*/
(PID.TID 0000.0001)                       4
(PID.TID 0000.0001)      -1,0= Off ; 1,2,3= On, 2=+rescale gU,gV, 3=+update cg2d solv.
(PID.TID 0000.0001)     ;
(PID.TID 0000.0001) hFacInf =   /* lower threshold for hFac (nonlinFreeSurf only)*/
(PID.TID 0000.0001)                 2.000000000000000E-01
(PID.TID 0000.0001)     ;
(PID.TID 0000.0001) hFacSup =   /* upper threshold for hFac (nonlinFreeSurf only)*/
(PID.TID 0000.0001)                 2.000000000000000E+00
(PID.TID 0000.0001)     ;
(PID.TID 0000.0001) select_rStar = /* r* Vertical coord. options (=0 r coord.; >0 uses r*)*/
(PID.TID 0000.0001)                       2
(PID.TID 0000.0001)     ;
(PID.TID 0000.0001) useRealFreshWaterFlux = /* Real Fresh Water Flux on/off flag*/
(PID.TID 0000.0001)                   F
(PID.TID 0000.0001)     ;
(PID.TID 0000.0001) temp_EvPrRn = /* Temp. of Evap/Prec/R (UNSET=use local T)(oC)*/
(PID.TID 0000.0001)                 1.234567000000000E+05
(PID.TID 0000.0001)     ;
(PID.TID 0000.0001) salt_EvPrRn = /* Salin. of Evap/Prec/R (UNSET=use local S)(psu)*/
(PID.TID 0000.0001)                 0.000000000000000E+00
(PID.TID 0000.0001)     ;
(PID.TID 0000.0001) selectAddFluid = /* option for mass source/sink of fluid (=0: off) */
(PID.TID 0000.0001)                       0
(PID.TID 0000.0001)     ;
(PID.TID 0000.0001) temp_addMass = /* Temp. of addMass array (UNSET=use local T)(oC)*/
(PID.TID 0000.0001)                 1.234567000000000E+05
(PID.TID 0000.0001)     ;
(PID.TID 0000.0001) salt_addMass = /* Salin. of addMass array (UNSET=use local S)(psu)*/
(PID.TID 0000.0001)                 0.000000000000000E+00
(PID.TID 0000.0001)     ;
(PID.TID 0000.0001) convertFW2Salt = /* convert F.W. Flux to Salt Flux (-1=use local S)(psu)*/
(PID.TID 0000.0001)                 3.500000000000000E+01
(PID.TID 0000.0001)     ;
(PID.TID 0000.0001) use3Dsolver = /* use 3-D pressure solver on/off flag */
(PID.TID 0000.0001)                   F
(PID.TID 0000.0001)     ;
(PID.TID 0000.0001) nonHydrostatic =  /* Non-Hydrostatic on/off flag */
(PID.TID 0000.0001)                   F
(PID.TID 0000.0001)     ;
(PID.TID 0000.0001) nh_Am2 = /* Non-Hydrostatic terms scaling factor */
(PID.TID 0000.0001)                 1.000000000000000E+00
(PID.TID 0000.0001)     ;
(PID.TID 0000.0001) implicitNHPress = /* Non-Hyd Pressure implicit factor (0-1)*/
(PID.TID 0000.0001)                 1.000000000000000E+00
(PID.TID 0000.0001)     ;
(PID.TID 0000.0001) selectNHfreeSurf = /* Non-Hyd (free-)Surface option */
(PID.TID 0000.0001)                       0
(PID.TID 0000.0001)     ;
(PID.TID 0000.0001) quasiHydrostatic = /* Quasi-Hydrostatic on/off flag */
(PID.TID 0000.0001)                   F
(PID.TID 0000.0001)     ;
(PID.TID 0000.0001) calc_wVelocity = /* vertical velocity calculation on/off flag */
(PID.TID 0000.0001)                   T
(PID.TID 0000.0001)     ;
(PID.TID 0000.0001) momStepping =  /* Momentum equation on/off flag */
(PID.TID 0000.0001)                   T
(PID.TID 0000.0001)     ;
(PID.TID 0000.0001) vectorInvariantMomentum= /* Vector-Invariant Momentum on/off */
(PID.TID 0000.0001)                   T
(PID.TID 0000.0001)     ;
(PID.TID 0000.0001) momAdvection =  /* Momentum advection on/off flag */
(PID.TID 0000.0001)                   T
(PID.TID 0000.0001)     ;
(PID.TID 0000.0001) momViscosity =  /* Momentum viscosity on/off flag */
(PID.TID 0000.0001)                   T
(PID.TID 0000.0001)     ;
(PID.TID 0000.0001) momImplVertAdv= /* Momentum implicit vert. advection on/off*/
(PID.TID 0000.0001)                   F
(PID.TID 0000.0001)     ;
(PID.TID 0000.0001) implicitViscosity = /* Implicit viscosity on/off flag */
(PID.TID 0000.0001)                   F
(PID.TID 0000.0001)     ;
(PID.TID 0000.0001) metricTerms =  /* metric-Terms on/off flag */
(PID.TID 0000.0001)                   F
(PID.TID 0000.0001)     ;
(PID.TID 0000.0001) useNHMTerms = /* Non-Hydrostatic Metric-Terms on/off */
(PID.TID 0000.0001)                   F
(PID.TID 0000.0001)     ;
(PID.TID 0000.0001) selectCoriMap = /* Coriolis Map options (0,1,2,3)*/
(PID.TID 0000.0001)                       2
(PID.TID 0000.0001)     0= f-Plane ; 1= Beta-Plane ; 2= Spherical ; 3= read from file
(PID.TID 0000.0001)     ;
(PID.TID 0000.0001) use3dCoriolis = /* 3-D Coriolis on/off flag */
(PID.TID 0000.0001)                   F
(PID.TID 0000.0001)     ;
(PID.TID 0000.0001) useCoriolis =  /* Coriolis on/off flag */
(PID.TID 0000.0001)                   T
(PID.TID 0000.0001)     ;
(PID.TID 0000.0001) useCDscheme =  /* CD scheme on/off flag */
(PID.TID 0000.0001)                   F
(PID.TID 0000.0001)     ;
(PID.TID 0000.0001) useEnergyConservingCoriolis= /* Flx-Form Coriolis scheme flag */
(PID.TID 0000.0001)                   F
(PID.TID 0000.0001)     ;
(PID.TID 0000.0001) useJamartWetPoints= /* Coriolis WetPoints method flag */
(PID.TID 0000.0001)                   T
(PID.TID 0000.0001)     ;
(PID.TID 0000.0001) useJamartMomAdv= /* V.I Non-linear terms Jamart flag */
(PID.TID 0000.0001)                   F
(PID.TID 0000.0001)     ;
(PID.TID 0000.0001) useAbsVorticity= /* V.I Works with f+zeta in Coriolis */
(PID.TID 0000.0001)                   F
(PID.TID 0000.0001)     ;
(PID.TID 0000.0001) selectVortScheme= /* V.I Scheme selector for Vorticity-Term */
(PID.TID 0000.0001)                       1
(PID.TID 0000.0001)    = 0 : enstrophy (Shallow-Water Eq.) conserving scheme by Sadourny, JAS 75
(PID.TID 0000.0001)    = 1 : same as 0 with modified hFac
(PID.TID 0000.0001)    = 2 : energy conserving scheme (used by Sadourny in JAS 75 paper)
(PID.TID 0000.0001)    = 3 : energy (general) and enstrophy (2D, nonDiv.) conserving scheme
(PID.TID 0000.0001)          from Sadourny (Burridge & Haseler, ECMWF Rep.4, 1977)
(PID.TID 0000.0001)     ;
(PID.TID 0000.0001) upwindVorticity= /* V.I Upwind bias vorticity flag */
(PID.TID 0000.0001)                   F
(PID.TID 0000.0001)     ;
(PID.TID 0000.0001) highOrderVorticity= /* V.I High order vort. advect. flag */
(PID.TID 0000.0001)                   F
(PID.TID 0000.0001)     ;
(PID.TID 0000.0001) upwindShear= /* V.I Upwind vertical Shear advection flag */
(PID.TID 0000.0001)                   F
(PID.TID 0000.0001)     ;
(PID.TID 0000.0001) selectKEscheme= /* V.I Kinetic Energy scheme selector */
(PID.TID 0000.0001)                       0
(PID.TID 0000.0001)     ;
(PID.TID 0000.0001) momForcing =  /* Momentum forcing on/off flag */
(PID.TID 0000.0001)                   T
(PID.TID 0000.0001)     ;
(PID.TID 0000.0001) momPressureForcing =  /* Momentum pressure term on/off flag */
(PID.TID 0000.0001)                   T
(PID.TID 0000.0001)     ;
(PID.TID 0000.0001) implicitIntGravWave= /* Implicit Internal Gravity Wave flag */
(PID.TID 0000.0001)                   F
(PID.TID 0000.0001)     ;
(PID.TID 0000.0001) staggerTimeStep =    /* Stagger time stepping on/off flag */
(PID.TID 0000.0001)                   T
(PID.TID 0000.0001)     ;
(PID.TID 0000.0001) doResetHFactors = /* reset thickness factors @ each time-step */
(PID.TID 0000.0001)                   F
(PID.TID 0000.0001)     ;
(PID.TID 0000.0001) multiDimAdvection =  /* enable/disable Multi-Dim Advection */
(PID.TID 0000.0001)                   T
(PID.TID 0000.0001)     ;
(PID.TID 0000.0001) useMultiDimAdvec =   /* Multi-Dim Advection is/is-not used */
(PID.TID 0000.0001)                   F
(PID.TID 0000.0001)     ;
(PID.TID 0000.0001) implicitDiffusion = /* Implicit Diffusion on/off flag */
(PID.TID 0000.0001)                   F
(PID.TID 0000.0001)     ;
(PID.TID 0000.0001) tempStepping =  /* Temperature equation on/off flag */
(PID.TID 0000.0001)                   T
(PID.TID 0000.0001)     ;
(PID.TID 0000.0001) tempAdvection = /* Temperature advection on/off flag */
(PID.TID 0000.0001)                   T
(PID.TID 0000.0001)     ;
(PID.TID 0000.0001) tempImplVertAdv = /* Temp. implicit vert. advection on/off */
(PID.TID 0000.0001)                   F
(PID.TID 0000.0001)     ;
(PID.TID 0000.0001) tempForcing  =  /* Temperature forcing on/off flag */
(PID.TID 0000.0001)                   T
(PID.TID 0000.0001)     ;
(PID.TID 0000.0001) doThetaClimRelax = /* apply SST relaxation on/off flag */
(PID.TID 0000.0001)                   F
(PID.TID 0000.0001)     ;
(PID.TID 0000.0001) tempIsActiveTr = /* Temp. is a dynamically Active Tracer */
(PID.TID 0000.0001)                   T
(PID.TID 0000.0001)     ;
(PID.TID 0000.0001) saltStepping =  /* Salinity equation on/off flag */
(PID.TID 0000.0001)                   T
(PID.TID 0000.0001)     ;
(PID.TID 0000.0001) saltAdvection = /* Salinity advection on/off flag */
(PID.TID 0000.0001)                   T
(PID.TID 0000.0001)     ;
(PID.TID 0000.0001) saltImplVertAdv = /* Sali. implicit vert. advection on/off */
(PID.TID 0000.0001)                   F
(PID.TID 0000.0001)     ;
(PID.TID 0000.0001) saltForcing  =  /* Salinity forcing on/off flag */
(PID.TID 0000.0001)                   T
(PID.TID 0000.0001)     ;
(PID.TID 0000.0001) doSaltClimRelax = /* apply SSS relaxation on/off flag */
(PID.TID 0000.0001)                   F
(PID.TID 0000.0001)     ;
(PID.TID 0000.0001) saltIsActiveTr = /* Salt  is a dynamically Active Tracer */
(PID.TID 0000.0001)                   T
(PID.TID 0000.0001)     ;
(PID.TID 0000.0001)  readBinaryPrec = /* Precision used for reading binary files */
(PID.TID 0000.0001)                      64
(PID.TID 0000.0001)     ;
(PID.TID 0000.0001) writeBinaryPrec = /* Precision used for writing binary files */
(PID.TID 0000.0001)                      64
(PID.TID 0000.0001)     ;
(PID.TID 0000.0001)  globalFiles = /* write "global" (=not per tile) files */
(PID.TID 0000.0001)                   F
(PID.TID 0000.0001)     ;
(PID.TID 0000.0001)  useSingleCpuIO = /* only master MPI process does I/O */
(PID.TID 0000.0001)                   F
(PID.TID 0000.0001)     ;
(PID.TID 0000.0001) /* debLev[*]  : level of debug & auxiliary message printing */
(PID.TID 0000.0001) debLevZero =  0 ; /* level of disabled aux. msg printing */
(PID.TID 0000.0001)    debLevA =  1 ; /* level of minimum  aux. msg printing */
(PID.TID 0000.0001)    debLevB =  2 ; /* level of low aux. print (report read-file opening)*/
(PID.TID 0000.0001)    debLevC =  3 ; /* level of moderate debug prt (most pkgs debug msg) */
(PID.TID 0000.0001)    debLevD =  4 ; /* level of enhanced debug prt (add DEBUG_STATS prt) */
(PID.TID 0000.0001)    debLevE =  5 ; /* level of extensive debug printing */
(PID.TID 0000.0001) debugLevel =  /* select debug printing level */
(PID.TID 0000.0001)                       2
(PID.TID 0000.0001)     ;
(PID.TID 0000.0001) //
(PID.TID 0000.0001) // Elliptic solver(s) paramters ( PARM02 in namelist )
(PID.TID 0000.0001) //
(PID.TID 0000.0001) cg2dMaxIters =   /* Upper limit on 2d con. grad iterations  */
(PID.TID 0000.0001)                     200
(PID.TID 0000.0001)     ;
(PID.TID 0000.0001) cg2dChkResFreq =   /* 2d con. grad convergence test frequency */
(PID.TID 0000.0001)                       1
(PID.TID 0000.0001)     ;
(PID.TID 0000.0001) cg2dUseMinResSol= /* use cg2d last-iter(=0) / min-resid.(=1) solution */
(PID.TID 0000.0001)                       0
(PID.TID 0000.0001)     ;
(PID.TID 0000.0001) cg2dTargetResidual =   /* 2d con. grad target residual  */
(PID.TID 0000.0001)                 1.000000000000000E-07
(PID.TID 0000.0001)     ;
(PID.TID 0000.0001) cg2dTargetResWunit =   /* CG2d target residual [W units] */
(PID.TID 0000.0001)                 1.000000000000000E-17
(PID.TID 0000.0001)     ;
(PID.TID 0000.0001) cg2dPreCondFreq =   /* Freq. for updating cg2d preconditioner */
(PID.TID 0000.0001)                       1
(PID.TID 0000.0001)     ;
(PID.TID 0000.0001) useSRCGSolver =  /* use single reduction CG solver(s) */
(PID.TID 0000.0001)                   F
(PID.TID 0000.0001)     ;
(PID.TID 0000.0001) printResidualFreq = /* Freq. for printing CG residual */
(PID.TID 0000.0001)                       0
(PID.TID 0000.0001)     ;
(PID.TID 0000.0001) //
(PID.TID 0000.0001) // Time stepping paramters ( PARM03 in namelist )
(PID.TID 0000.0001) //
(PID.TID 0000.0001) deltaTMom =   /* Momentum equation timestep ( s ) */
(PID.TID 0000.0001)                 4.500000000000000E+02
(PID.TID 0000.0001)     ;
(PID.TID 0000.0001) deltaTFreeSurf = /* FreeSurface equation timestep ( s ) */
(PID.TID 0000.0001)                 4.500000000000000E+02
(PID.TID 0000.0001)     ;
(PID.TID 0000.0001) dTtracerLev =  /* Tracer equation timestep ( s ) */
(PID.TID 0000.0001)     5 @  4.500000000000000E+02              /* K =  1:  5 */
(PID.TID 0000.0001)     ;
(PID.TID 0000.0001) deltaTClock  =   /* Model clock timestep ( s ) */
(PID.TID 0000.0001)                 4.500000000000000E+02
(PID.TID 0000.0001)     ;
(PID.TID 0000.0001) cAdjFreq =   /* Convective adjustment interval ( s ) */
(PID.TID 0000.0001)                 0.000000000000000E+00
(PID.TID 0000.0001)     ;
(PID.TID 0000.0001) momForcingOutAB = /* =1: take Momentum Forcing out of Adams-Bash. stepping */
(PID.TID 0000.0001)                       1
(PID.TID 0000.0001)     ;
(PID.TID 0000.0001) tracForcingOutAB = /* =1: take T,S,pTr Forcing out of Adams-Bash. stepping */
(PID.TID 0000.0001)                       1
(PID.TID 0000.0001)     ;
(PID.TID 0000.0001) momDissip_In_AB = /* put Dissipation Tendency in Adams-Bash. stepping */
(PID.TID 0000.0001)                   T
(PID.TID 0000.0001)     ;
(PID.TID 0000.0001) doAB_onGtGs = /* apply AB on Tendencies (rather than on T,S)*/
(PID.TID 0000.0001)                   T
(PID.TID 0000.0001)     ;
(PID.TID 0000.0001) abEps =   /* Adams-Bashforth-2 stabilizing weight */
(PID.TID 0000.0001)                 1.000000000000000E-01
(PID.TID 0000.0001)     ;
(PID.TID 0000.0001) pickupStrictlyMatch= /* stop if pickup do not strictly match */
(PID.TID 0000.0001)                   T
(PID.TID 0000.0001)     ;
(PID.TID 0000.0001) nIter0   =   /* Run starting timestep number */
(PID.TID 0000.0001)                       0
(PID.TID 0000.0001)     ;
(PID.TID 0000.0001) nTimeSteps = /* Number of timesteps */
(PID.TID 0000.0001)                      40
(PID.TID 0000.0001)     ;
(PID.TID 0000.0001) nEndIter =   /* Run ending timestep number */
(PID.TID 0000.0001)                      40
(PID.TID 0000.0001)     ;
(PID.TID 0000.0001) baseTime =   /* Model base time ( s ) */
(PID.TID 0000.0001)                 0.000000000000000E+00
(PID.TID 0000.0001)     ;
(PID.TID 0000.0001) startTime =  /* Run start time ( s ) */
(PID.TID 0000.0001)                 0.000000000000000E+00
(PID.TID 0000.0001)     ;
(PID.TID 0000.0001) endTime  =   /* Integration ending time ( s ) */
(PID.TID 0000.0001)                 1.800000000000000E+04
(PID.TID 0000.0001)     ;
(PID.TID 0000.0001) pChkPtFreq = /* Permanent restart/pickup file interval ( s ) */
(PID.TID 0000.0001)                 2.592000000000000E+06
(PID.TID 0000.0001)     ;
(PID.TID 0000.0001) chkPtFreq  = /* Rolling restart/pickup file interval ( s ) */
(PID.TID 0000.0001)                 0.000000000000000E+00
(PID.TID 0000.0001)     ;
(PID.TID 0000.0001) pickup_write_mdsio =   /* Model IO flag. */
(PID.TID 0000.0001)                   T
(PID.TID 0000.0001)     ;
(PID.TID 0000.0001) pickup_read_mdsio =   /* Model IO flag. */
(PID.TID 0000.0001)                   T
(PID.TID 0000.0001)     ;
(PID.TID 0000.0001) pickup_write_mnc =   /* Model IO flag. */
(PID.TID 0000.0001)                   F
(PID.TID 0000.0001)     ;
(PID.TID 0000.0001) pickup_read_mnc =   /* Model IO flag. */
(PID.TID 0000.0001)                   F
(PID.TID 0000.0001)     ;
(PID.TID 0000.0001) pickup_write_immed =   /* Model IO flag. */
(PID.TID 0000.0001)                   F
(PID.TID 0000.0001)     ;
(PID.TID 0000.0001) writePickupAtEnd =   /* Model IO flag. */
(PID.TID 0000.0001)                   T
(PID.TID 0000.0001)     ;
(PID.TID 0000.0001) dumpFreq =   /* Model state write out interval ( s ). */
(PID.TID 0000.0001)                 2.592000000000000E+06
(PID.TID 0000.0001)     ;
(PID.TID 0000.0001) dumpInitAndLast= /* write out Initial & Last iter. model state */
(PID.TID 0000.0001)                   T
(PID.TID 0000.0001)     ;
(PID.TID 0000.0001) snapshot_mdsio =   /* Model IO flag. */
(PID.TID 0000.0001)                   T
(PID.TID 0000.0001)     ;
(PID.TID 0000.0001) snapshot_mnc =   /* Model IO flag. */
(PID.TID 0000.0001)                   F
(PID.TID 0000.0001)     ;
(PID.TID 0000.0001) monitorFreq =   /* Monitor output interval ( s ). */
(PID.TID 0000.0001)                 1.000000000000000E+00
(PID.TID 0000.0001)     ;
(PID.TID 0000.0001) monitorSelect = /* select group of variables to monitor */
(PID.TID 0000.0001)                       2
(PID.TID 0000.0001)     ;
(PID.TID 0000.0001) monitor_stdio =   /* Model IO flag. */
(PID.TID 0000.0001)                   T
(PID.TID 0000.0001)     ;
(PID.TID 0000.0001) monitor_mnc =   /* Model IO flag. */
(PID.TID 0000.0001)                   F
(PID.TID 0000.0001)     ;
(PID.TID 0000.0001) externForcingPeriod =   /* forcing period (s) */
(PID.TID 0000.0001)                 0.000000000000000E+00
(PID.TID 0000.0001)     ;
(PID.TID 0000.0001) externForcingCycle =   /* period of the cyle (s). */
(PID.TID 0000.0001)                 0.000000000000000E+00
(PID.TID 0000.0001)     ;
(PID.TID 0000.0001) tauThetaClimRelax =   /* relaxation time scale (s) */
(PID.TID 0000.0001)                 0.000000000000000E+00
(PID.TID 0000.0001)     ;
(PID.TID 0000.0001) tauSaltClimRelax =   /* relaxation time scale (s) */
(PID.TID 0000.0001)                 0.000000000000000E+00
(PID.TID 0000.0001)     ;
(PID.TID 0000.0001) latBandClimRelax =   /* max. Lat. where relaxation */
(PID.TID 0000.0001)                 1.800000000000000E+02
(PID.TID 0000.0001)     ;
(PID.TID 0000.0001) //
(PID.TID 0000.0001) // Gridding paramters ( PARM04 in namelist )
(PID.TID 0000.0001) //
(PID.TID 0000.0001) usingCartesianGrid = /* Cartesian coordinates flag ( True/False ) */
(PID.TID 0000.0001)                   F
(PID.TID 0000.0001)     ;
(PID.TID 0000.0001) usingCylindricalGrid = /* Cylindrical coordinates flag ( True/False ) */
(PID.TID 0000.0001)                   F
(PID.TID 0000.0001)     ;
(PID.TID 0000.0001) usingSphericalPolarGrid = /* Spherical coordinates flag ( True/False ) */
(PID.TID 0000.0001)                   F
(PID.TID 0000.0001)     ;
(PID.TID 0000.0001) usingCurvilinearGrid = /* Curvilinear coordinates flag ( True/False ) */
(PID.TID 0000.0001)                   T
(PID.TID 0000.0001)     ;
(PID.TID 0000.0001) selectSigmaCoord = /* Hybrid-Sigma Vert. Coordinate option */
(PID.TID 0000.0001)                       0
(PID.TID 0000.0001)     ;
(PID.TID 0000.0001) Ro_SeaLevel = /* r(1) ( units of r == Pa ) */
(PID.TID 0000.0001)                 1.000000000000000E+05
(PID.TID 0000.0001)     ;
(PID.TID 0000.0001) rSigmaBnd = /* r/sigma transition ( units of r == Pa ) */
(PID.TID 0000.0001)                 1.234567000000000E+05
(PID.TID 0000.0001)     ;
(PID.TID 0000.0001) rkSign =   /* index orientation relative to vertical coordinate */
(PID.TID 0000.0001)                -1.000000000000000E+00
(PID.TID 0000.0001)     ;
(PID.TID 0000.0001) gravitySign = /* gravity orientation relative to vertical coordinate */
(PID.TID 0000.0001)                 1.000000000000000E+00
(PID.TID 0000.0001)     ;
(PID.TID 0000.0001) mass2rUnit = /* convert mass per unit area [kg/m2] to r-units [Pa] */
(PID.TID 0000.0001)                 9.810000000000000E+00
(PID.TID 0000.0001)     ;
(PID.TID 0000.0001) rUnit2mass = /* convert r-units [Pa] to mass per unit area [kg/m2] */
(PID.TID 0000.0001)                 1.019367991845056E-01
(PID.TID 0000.0001)     ;
(PID.TID 0000.0001) drC =   /* C spacing ( units of r ) */
(PID.TID 0000.0001)                 5.000000000000000E+03,      /* K =  1 */
(PID.TID 0000.0001)                 1.750000000000000E+04,      /* K =  2 */
(PID.TID 0000.0001)                 2.750000000000000E+04,      /* K =  3 */
(PID.TID 0000.0001)                 2.500000000000000E+04,      /* K =  4 */
(PID.TID 0000.0001)                 1.750000000000000E+04       /* K =  5 */
(PID.TID 0000.0001)     ;
(PID.TID 0000.0001) drF =   /* W spacing ( units of r ) */
(PID.TID 0000.0001)                 1.000000000000000E+04,      /* K =  1 */
(PID.TID 0000.0001)                 2.500000000000000E+04,      /* K =  2 */
(PID.TID 0000.0001)                 3.000000000000000E+04,      /* K =  3 */
(PID.TID 0000.0001)                 2.000000000000000E+04,      /* K =  4 */
(PID.TID 0000.0001)                 1.500000000000000E+04       /* K =  5 */
(PID.TID 0000.0001)     ;
(PID.TID 0000.0001) radius_fromHorizGrid = /* sphere Radius of input horiz. grid */
(PID.TID 0000.0001)                 6.370000000000000E+06
(PID.TID 0000.0001)     ;
(PID.TID 0000.0001) rSphere =  /* Radius ( ignored - cartesian, m - spherical ) */
(PID.TID 0000.0001)                 6.370000000000000E+06
(PID.TID 0000.0001)     ;
(PID.TID 0000.0001) deepAtmosphere = /* Deep/Shallow Atmosphere flag (True/False) */
(PID.TID 0000.0001)                   F
(PID.TID 0000.0001)     ;
(PID.TID 0000.0001) xC =  /* xC(:,1,:,1) : P-point X coord ( deg. or m if cartesian) */
(PID.TID 0000.0001)                -4.439521994760536E+01,      /* I =  1 */
(PID.TID 0000.0001)                -4.295641272275883E+01,      /* I =  2 */
(PID.TID 0000.0001)                -4.122055553388957E+01,      /* I =  3 */
(PID.TID 0000.0001)      . . .
(PID.TID 0000.0001)                 8.070819219728060E+01,      /* I = 46 */
(PID.TID 0000.0001)                 8.439652466417766E+01,      /* I = 47 */
(PID.TID 0000.0001)                 8.812739148696656E+01,      /* I = 48 */
(PID.TID 0000.0001)                 9.187260851303344E+01,      /* I = 49 */
(PID.TID 0000.0001)                 9.560347533582234E+01,      /* I = 50 */
(PID.TID 0000.0001)                 9.929180780271940E+01,      /* I = 51 */
(PID.TID 0000.0001)      . . .
(PID.TID 0000.0001)                 1.321863035748696E+02,      /* I = 94 */
(PID.TID 0000.0001)                 1.337919453120370E+02,      /* I = 95 */
(PID.TID 0000.0001)                 1.350000000000000E+02,      /* I = 96 */
(PID.TID 0000.0001)                 1.356047800523947E+02,      /* I = 97 */
(PID.TID 0000.0001)                 1.358367907661329E+02,      /* I = 98 */
(PID.TID 0000.0001)                 1.359720382181193E+02,      /* I = 99 */
(PID.TID 0000.0001)      . . .
(PID.TID 0000.0001)                -1.336511021209287E+02,      /* I =142 */
(PID.TID 0000.0001)                -1.336469399409420E+02,      /* I =143 */
(PID.TID 0000.0001)                -1.336449032499283E+02,      /* I =144 */
(PID.TID 0000.0001)                -1.336449032499283E+02,      /* I =145 */
(PID.TID 0000.0001)                -1.336469399409420E+02,      /* I =146 */
(PID.TID 0000.0001)                -1.336511021209287E+02,      /* I =147 */
(PID.TID 0000.0001)      . . .
(PID.TID 0000.0001)                 1.378136964251304E+02,      /* I =190 */
(PID.TID 0000.0001)                 1.362080546879630E+02,      /* I =191 */
(PID.TID 0000.0001)                 1.350000000000000E+02       /* I =192 */
(PID.TID 0000.0001)     ;
(PID.TID 0000.0001) yC =  /* yC(1,:,1,:) : P-point Y coord ( deg. or m if cartesian) */
(PID.TID 0000.0001)                -3.497677942598243E+01,      /* J =  1 */
(PID.TID 0000.0001)                -3.374005967394886E+01,      /* J =  2 */
(PID.TID 0000.0001)                -3.220655175667454E+01,      /* J =  3 */
(PID.TID 0000.0001)                -3.045756348838641E+01,      /* J =  4 */
(PID.TID 0000.0001)                -2.853728129852918E+01,      /* J =  5 */
(PID.TID 0000.0001)                -2.647426640173173E+01,      /* J =  6 */
(PID.TID 0000.0001)                -2.428936657094636E+01,      /* J =  7 */
(PID.TID 0000.0001)                -2.199915808312262E+01,      /* J =  8 */
(PID.TID 0000.0001)                -1.961768597440146E+01,      /* J =  9 */
(PID.TID 0000.0001)                -1.715743888281371E+01,      /* J = 10 */
(PID.TID 0000.0001)                -1.462993396899330E+01,      /* J = 11 */
(PID.TID 0000.0001)                -1.204608340464756E+01,      /* J = 12 */
(PID.TID 0000.0001)                -9.416429130284818E+00,      /* J = 13 */
(PID.TID 0000.0001)                -6.751293662992216E+00,      /* J = 14 */
(PID.TID 0000.0001)                -4.060875511835959E+00,      /* J = 15 */
(PID.TID 0000.0001)                -1.355307764409121E+00,      /* J = 16 */
(PID.TID 0000.0001)                 1.355307764409121E+00,      /* J = 17 */
(PID.TID 0000.0001)                 4.060875511835959E+00,      /* J = 18 */
(PID.TID 0000.0001)                 6.751293662992216E+00,      /* J = 19 */
(PID.TID 0000.0001)                 9.416429130284818E+00,      /* J = 20 */
(PID.TID 0000.0001)                 1.204608340464756E+01,      /* J = 21 */
(PID.TID 0000.0001)                 1.462993396899330E+01,      /* J = 22 */
(PID.TID 0000.0001)                 1.715743888281371E+01,      /* J = 23 */
(PID.TID 0000.0001)                 1.961768597440146E+01,      /* J = 24 */
(PID.TID 0000.0001)                 2.199915808312262E+01,      /* J = 25 */
(PID.TID 0000.0001)                 2.428936657094636E+01,      /* J = 26 */
(PID.TID 0000.0001)                 2.647426640173173E+01,      /* J = 27 */
(PID.TID 0000.0001)                 2.853728129852918E+01,      /* J = 28 */
(PID.TID 0000.0001)                 3.045756348838641E+01,      /* J = 29 */
(PID.TID 0000.0001)                 3.220655175667454E+01,      /* J = 30 */
(PID.TID 0000.0001)                 3.374005967394886E+01,      /* J = 31 */
(PID.TID 0000.0001)                 3.497677942598243E+01       /* J = 32 */
(PID.TID 0000.0001)     ;
(PID.TID 0000.0001) rcoord = /* P-point R coordinate (  units of r ) */
(PID.TID 0000.0001)                 9.500000000000000E+04,      /* K =  1 */
(PID.TID 0000.0001)                 7.750000000000000E+04,      /* K =  2 */
(PID.TID 0000.0001)                 5.000000000000000E+04,      /* K =  3 */
(PID.TID 0000.0001)                 2.500000000000000E+04,      /* K =  4 */
(PID.TID 0000.0001)                 7.500000000000000E+03       /* K =  5 */
(PID.TID 0000.0001)     ;
(PID.TID 0000.0001) rF =   /* W-Interf. R coordinate (  units of r ) */
(PID.TID 0000.0001)                 1.000000000000000E+05,      /* K =  1 */
(PID.TID 0000.0001)                 9.000000000000000E+04,      /* K =  2 */
(PID.TID 0000.0001)                 6.500000000000000E+04,      /* K =  3 */
(PID.TID 0000.0001)                 3.500000000000000E+04,      /* K =  4 */
(PID.TID 0000.0001)                 1.500000000000000E+04,      /* K =  5 */
(PID.TID 0000.0001)                 0.000000000000000E+00       /* K =  6 */
(PID.TID 0000.0001)     ;
(PID.TID 0000.0001) deepFacC = /* deep-model grid factor @ cell-Center (-) */
(PID.TID 0000.0001)     5 @  1.000000000000000E+00              /* K =  1:  5 */
(PID.TID 0000.0001)     ;
(PID.TID 0000.0001) deepFacF = /* deep-model grid factor @ W-Interface (-) */
(PID.TID 0000.0001)     6 @  1.000000000000000E+00              /* K =  1:  6 */
(PID.TID 0000.0001)     ;
(PID.TID 0000.0001) rVel2wUnit = /* convert units: rVel -> wSpeed (=1 if z-coord)*/
(PID.TID 0000.0001)                 8.468280180573759E-02,      /* K =  1 */
(PID.TID 0000.0001)                 9.264164924838553E-02,      /* K =  2 */
(PID.TID 0000.0001)                 1.218363765768670E-01,      /* K =  3 */
(PID.TID 0000.0001)                 2.012547327065781E-01,      /* K =  4 */
(PID.TID 0000.0001)                 4.382932217562046E-01,      /* K =  5 */
(PID.TID 0000.0001)                 1.000000000000000E+00       /* K =  6 */
(PID.TID 0000.0001)     ;
(PID.TID 0000.0001) wUnit2rVel = /* convert units: wSpeed -> rVel (=1 if z-coord)*/
(PID.TID 0000.0001)                 1.180877319451476E+01,      /* K =  1 */
(PID.TID 0000.0001)                 1.079428106162982E+01,      /* K =  2 */
(PID.TID 0000.0001)                 8.207729317763288E+00,      /* K =  3 */
(PID.TID 0000.0001)                 4.968827249682435E+00,      /* K =  4 */
(PID.TID 0000.0001)                 2.281577606865748E+00,      /* K =  5 */
(PID.TID 0000.0001)                 1.000000000000000E+00       /* K =  6 */
(PID.TID 0000.0001)     ;
(PID.TID 0000.0001) dBdrRef = /* Vertical grad. of reference buoyancy [(m/s/r)^2] */
(PID.TID 0000.0001)                 0.000000000000000E+00,      /* K =  1 */
(PID.TID 0000.0001)                 1.551846956946958E-06,      /* K =  2 */
(PID.TID 0000.0001)                 2.382518577942705E-06,      /* K =  3 */
(PID.TID 0000.0001)                 5.042981208886097E-06,      /* K =  4 */
(PID.TID 0000.0001)                 6.524166098263503E-05       /* K =  5 */
(PID.TID 0000.0001)     ;
(PID.TID 0000.0001) rotateGrid = /* use rotated grid ( True/False ) */
(PID.TID 0000.0001)                   F
(PID.TID 0000.0001)     ;
(PID.TID 0000.0001) phiEuler = /* Euler angle, rotation about original z-coordinate [rad] */
(PID.TID 0000.0001)                 0.000000000000000E+00
(PID.TID 0000.0001)     ;
(PID.TID 0000.0001) thetaEuler = /* Euler angle, rotation about new x-coordinate [rad] */
(PID.TID 0000.0001)                 0.000000000000000E+00
(PID.TID 0000.0001)     ;
(PID.TID 0000.0001) psiEuler = /* Euler angle, rotation about new z-coordinate [rad] */
(PID.TID 0000.0001)                 0.000000000000000E+00
(PID.TID 0000.0001)     ;
(PID.TID 0000.0001) dxF =  /* dxF(:,1,:,1) ( units: m ) */
(PID.TID 0000.0001)                 1.202082051331828E+05,      /* I =  1 */
(PID.TID 0000.0001)                 1.563594089971120E+05,      /* I =  2 */
(PID.TID 0000.0001)                 1.835530058121492E+05,      /* I =  3 */
(PID.TID 0000.0001)      . . .
(PID.TID 0000.0001)                 2.978501920522794E+05,      /* I = 46 */
(PID.TID 0000.0001)                 3.000967749619962E+05,      /* I = 47 */
(PID.TID 0000.0001)                 3.012190981969055E+05,      /* I = 48 */
(PID.TID 0000.0001)                 3.012190981969055E+05,      /* I = 49 */
(PID.TID 0000.0001)                 3.000967749619962E+05,      /* I = 50 */
(PID.TID 0000.0001)                 2.978501920522794E+05,      /* I = 51 */
(PID.TID 0000.0001)      . . .
(PID.TID 0000.0001)                 1.835530058121492E+05,      /* I = 94 */
(PID.TID 0000.0001)                 1.563594089971120E+05,      /* I = 95 */
(PID.TID 0000.0001)                 1.202082051331828E+05,      /* I = 96 */
(PID.TID 0000.0001)                 1.202082051331828E+05,      /* I = 97 */
(PID.TID 0000.0001)                 1.563594089971120E+05,      /* I = 98 */
(PID.TID 0000.0001)                 1.835530058121492E+05,      /* I = 99 */
(PID.TID 0000.0001)      . . .
(PID.TID 0000.0001)                 2.978501920522794E+05,      /* I =142 */
(PID.TID 0000.0001)                 3.000967749619962E+05,      /* I =143 */
(PID.TID 0000.0001)                 3.012190981969055E+05,      /* I =144 */
(PID.TID 0000.0001)                 3.012190981969055E+05,      /* I =145 */
(PID.TID 0000.0001)                 3.000967749619962E+05,      /* I =146 */
(PID.TID 0000.0001)                 2.978501920522794E+05,      /* I =147 */
(PID.TID 0000.0001)      . . .
(PID.TID 0000.0001)                 1.835530058121492E+05,      /* I =190 */
(PID.TID 0000.0001)                 1.563594089971120E+05,      /* I =191 */
(PID.TID 0000.0001)                 1.202082051331828E+05       /* I =192 */
(PID.TID 0000.0001)     ;
(PID.TID 0000.0001) dxF =  /* dxF(1,:,1,:) ( units: m ) */
(PID.TID 0000.0001)                 1.202082051331828E+05,      /* J =  1 */
(PID.TID 0000.0001)                 1.572908084538706E+05,      /* J =  2 */
(PID.TID 0000.0001)                 1.840412227747703E+05,      /* J =  3 */
(PID.TID 0000.0001)                 2.048868197919576E+05,      /* J =  4 */
(PID.TID 0000.0001)                 2.220405216043041E+05,      /* J =  5 */
(PID.TID 0000.0001)                 2.365892017348392E+05,      /* J =  6 */
(PID.TID 0000.0001)                 2.491250781852558E+05,      /* J =  7 */
(PID.TID 0000.0001)                 2.599949918261881E+05,      /* J =  8 */
(PID.TID 0000.0001)                 2.694110134598581E+05,      /* J =  9 */
(PID.TID 0000.0001)                 2.775055554645015E+05,      /* J = 10 */
(PID.TID 0000.0001)                 2.843615645344775E+05,      /* J = 11 */
(PID.TID 0000.0001)                 2.900303768613599E+05,      /* J = 12 */
(PID.TID 0000.0001)                 2.945429307892709E+05,      /* J = 13 */
(PID.TID 0000.0001)                 2.979171143158405E+05,      /* J = 14 */
(PID.TID 0000.0001)                 3.001626787528886E+05,      /* J = 15 */
(PID.TID 0000.0001)     2 @  3.012844832048790E+05,             /* J = 16: 17 */
(PID.TID 0000.0001)                 3.001626787528886E+05,      /* J = 18 */
(PID.TID 0000.0001)                 2.979171143158405E+05,      /* J = 19 */
(PID.TID 0000.0001)                 2.945429307892709E+05,      /* J = 20 */
(PID.TID 0000.0001)                 2.900303768613599E+05,      /* J = 21 */
(PID.TID 0000.0001)                 2.843615645344775E+05,      /* J = 22 */
(PID.TID 0000.0001)                 2.775055554645015E+05,      /* J = 23 */
(PID.TID 0000.0001)                 2.694110134598581E+05,      /* J = 24 */
(PID.TID 0000.0001)                 2.599949918261881E+05,      /* J = 25 */
(PID.TID 0000.0001)                 2.491250781852558E+05,      /* J = 26 */
(PID.TID 0000.0001)                 2.365892017348392E+05,      /* J = 27 */
(PID.TID 0000.0001)                 2.220405216043041E+05,      /* J = 28 */
(PID.TID 0000.0001)                 2.048868197919576E+05,      /* J = 29 */
(PID.TID 0000.0001)                 1.840412227747703E+05,      /* J = 30 */
(PID.TID 0000.0001)                 1.572908084538706E+05,      /* J = 31 */
(PID.TID 0000.0001)                 1.202082051331828E+05       /* J = 32 */
(PID.TID 0000.0001)     ;
(PID.TID 0000.0001) dyF =  /* dyF(:,1,:,1) ( units: m ) */
(PID.TID 0000.0001)                 1.202082051331828E+05,      /* I =  1 */
(PID.TID 0000.0001)                 1.572908084538706E+05,      /* I =  2 */
(PID.TID 0000.0001)                 1.840412227747703E+05,      /* I =  3 */
(PID.TID 0000.0001)      . . .
(PID.TID 0000.0001)                 2.979171143158405E+05,      /* I = 46 */
(PID.TID 0000.0001)                 3.001626787528886E+05,      /* I = 47 */
(PID.TID 0000.0001)                 3.012844832048790E+05,      /* I = 48 */
(PID.TID 0000.0001)                 3.012844832048790E+05,      /* I = 49 */
(PID.TID 0000.0001)                 3.001626787528886E+05,      /* I = 50 */
(PID.TID 0000.0001)                 2.979171143158405E+05,      /* I = 51 */
(PID.TID 0000.0001)      . . .
(PID.TID 0000.0001)                 1.840412227747703E+05,      /* I = 94 */
(PID.TID 0000.0001)                 1.572908084538706E+05,      /* I = 95 */
(PID.TID 0000.0001)                 1.202082051331828E+05,      /* I = 96 */
(PID.TID 0000.0001)                 1.202082051331828E+05,      /* I = 97 */
(PID.TID 0000.0001)                 1.572908084538706E+05,      /* I = 98 */
(PID.TID 0000.0001)                 1.840412227747703E+05,      /* I = 99 */
(PID.TID 0000.0001)      . . .
(PID.TID 0000.0001)                 2.979171143158405E+05,      /* I =142 */
(PID.TID 0000.0001)                 3.001626787528886E+05,      /* I =143 */
(PID.TID 0000.0001)                 3.012844832048790E+05,      /* I =144 */
(PID.TID 0000.0001)                 3.012844832048790E+05,      /* I =145 */
(PID.TID 0000.0001)                 3.001626787528886E+05,      /* I =146 */
(PID.TID 0000.0001)                 2.979171143158405E+05,      /* I =147 */
(PID.TID 0000.0001)      . . .
(PID.TID 0000.0001)                 1.840412227747703E+05,      /* I =190 */
(PID.TID 0000.0001)                 1.572908084538706E+05,      /* I =191 */
(PID.TID 0000.0001)                 1.202082051331828E+05       /* I =192 */
(PID.TID 0000.0001)     ;
(PID.TID 0000.0001) dyF =  /* dyF(1,:,1,:) ( units: m ) */
(PID.TID 0000.0001)                 1.202082051331828E+05,      /* J =  1 */
(PID.TID 0000.0001)                 1.563594089971120E+05,      /* J =  2 */
(PID.TID 0000.0001)                 1.835530058121492E+05,      /* J =  3 */
(PID.TID 0000.0001)                 2.045883481718707E+05,      /* J =  4 */
(PID.TID 0000.0001)                 2.218350349844185E+05,      /* J =  5 */
(PID.TID 0000.0001)                 2.364352994647058E+05,      /* J =  6 */
(PID.TID 0000.0001)                 2.490022710862746E+05,      /* J =  7 */
(PID.TID 0000.0001)                 2.598919724358304E+05,      /* J =  8 */
(PID.TID 0000.0001)                 2.693210245495156E+05,      /* J =  9 */
(PID.TID 0000.0001)                 2.774243179696503E+05,      /* J = 10 */
(PID.TID 0000.0001)                 2.842862532064524E+05,      /* J = 11 */
(PID.TID 0000.0001)                 2.899590699694043E+05,      /* J = 12 */
(PID.TID 0000.0001)                 2.944742915095688E+05,      /* J = 13 */
(PID.TID 0000.0001)                 2.978501920522794E+05,      /* J = 14 */
(PID.TID 0000.0001)                 3.000967749619962E+05,      /* J = 15 */
(PID.TID 0000.0001)     2 @  3.012190981969055E+05,             /* J = 16: 17 */
(PID.TID 0000.0001)                 3.000967749619962E+05,      /* J = 18 */
(PID.TID 0000.0001)                 2.978501920522794E+05,      /* J = 19 */
(PID.TID 0000.0001)                 2.944742915095688E+05,      /* J = 20 */
(PID.TID 0000.0001)                 2.899590699694043E+05,      /* J = 21 */
(PID.TID 0000.0001)                 2.842862532064524E+05,      /* J = 22 */
(PID.TID 0000.0001)                 2.774243179696503E+05,      /* J = 23 */
(PID.TID 0000.0001)                 2.693210245495156E+05,      /* J = 24 */
(PID.TID 0000.0001)                 2.598919724358304E+05,      /* J = 25 */
(PID.TID 0000.0001)                 2.490022710862746E+05,      /* J = 26 */
(PID.TID 0000.0001)                 2.364352994647058E+05,      /* J = 27 */
(PID.TID 0000.0001)                 2.218350349844185E+05,      /* J = 28 */
(PID.TID 0000.0001)                 2.045883481718707E+05,      /* J = 29 */
(PID.TID 0000.0001)                 1.835530058121492E+05,      /* J = 30 */
(PID.TID 0000.0001)                 1.563594089971120E+05,      /* J = 31 */
(PID.TID 0000.0001)                 1.202082051331828E+05       /* J = 32 */
(PID.TID 0000.0001)     ;
(PID.TID 0000.0001) dxG =  /* dxG(:,1,:,1) ( units: m ) */
(PID.TID 0000.0001)                 1.009837800879055E+05,      /* I =  1 */
(PID.TID 0000.0001)                 1.534505834330338E+05,      /* I =  2 */
(PID.TID 0000.0001)                 1.823321598773926E+05,      /* I =  3 */
(PID.TID 0000.0001)      . . .
(PID.TID 0000.0001)                 2.977867909042096E+05,      /* I = 46 */
(PID.TID 0000.0001)                 3.000380090330854E+05,      /* I = 47 */
(PID.TID 0000.0001)                 3.011625828699101E+05,      /* I = 48 */
(PID.TID 0000.0001)                 3.011625828699101E+05,      /* I = 49 */
(PID.TID 0000.0001)                 3.000380090330854E+05,      /* I = 50 */
(PID.TID 0000.0001)                 2.977867909042096E+05,      /* I = 51 */
(PID.TID 0000.0001)      . . .
(PID.TID 0000.0001)                 1.823321598773926E+05,      /* I = 94 */
(PID.TID 0000.0001)                 1.534505834330338E+05,      /* I = 95 */
(PID.TID 0000.0001)                 1.009837800879055E+05,      /* I = 96 */
(PID.TID 0000.0001)                 1.009837800879055E+05,      /* I = 97 */
(PID.TID 0000.0001)                 1.534505834330338E+05,      /* I = 98 */
(PID.TID 0000.0001)                 1.823321598773926E+05,      /* I = 99 */
(PID.TID 0000.0001)      . . .
(PID.TID 0000.0001)                 2.977867909042096E+05,      /* I =142 */
(PID.TID 0000.0001)                 3.000380090330854E+05,      /* I =143 */
(PID.TID 0000.0001)                 3.011625828699101E+05,      /* I =144 */
(PID.TID 0000.0001)                 3.011625828699101E+05,      /* I =145 */
(PID.TID 0000.0001)                 3.000380090330854E+05,      /* I =146 */
(PID.TID 0000.0001)                 2.977867909042096E+05,      /* I =147 */
(PID.TID 0000.0001)      . . .
(PID.TID 0000.0001)                 1.823321598773926E+05,      /* I =190 */
(PID.TID 0000.0001)                 1.534505834330338E+05,      /* I =191 */
(PID.TID 0000.0001)                 1.009837800879055E+05       /* I =192 */
(PID.TID 0000.0001)     ;
(PID.TID 0000.0001) dxG =  /* dxG(1,:,1,:) ( units: m ) */
(PID.TID 0000.0001)                 1.009837800879055E+05,      /* J =  1 */
(PID.TID 0000.0001)                 1.403701524205398E+05,      /* J =  2 */
(PID.TID 0000.0001)                 1.716197227386011E+05,      /* J =  3 */
(PID.TID 0000.0001)                 1.950254041626018E+05,      /* J =  4 */
(PID.TID 0000.0001)                 2.138410773065497E+05,      /* J =  5 */
(PID.TID 0000.0001)                 2.295958105911512E+05,      /* J =  6 */
(PID.TID 0000.0001)                 2.430829951739083E+05,      /* J =  7 */
(PID.TID 0000.0001)                 2.547526806712889E+05,      /* J =  8 */
(PID.TID 0000.0001)                 2.648750305193301E+05,      /* J =  9 */
(PID.TID 0000.0001)                 2.736173771018112E+05,      /* J = 10 */
(PID.TID 0000.0001)                 2.810845823202647E+05,      /* J = 11 */
(PID.TID 0000.0001)                 2.873420591008078E+05,      /* J = 12 */
(PID.TID 0000.0001)                 2.924298293668651E+05,      /* J = 13 */
(PID.TID 0000.0001)                 2.963715635865306E+05,      /* J = 14 */
(PID.TID 0000.0001)                 2.991805843171258E+05,      /* J = 15 */
(PID.TID 0000.0001)                 3.008638765647886E+05,      /* J = 16 */
(PID.TID 0000.0001)                 3.014246674484008E+05,      /* J = 17 */
(PID.TID 0000.0001)                 3.008638765647886E+05,      /* J = 18 */
(PID.TID 0000.0001)                 2.991805843171258E+05,      /* J = 19 */
(PID.TID 0000.0001)                 2.963715635865306E+05,      /* J = 20 */
(PID.TID 0000.0001)                 2.924298293668651E+05,      /* J = 21 */
(PID.TID 0000.0001)                 2.873420591008078E+05,      /* J = 22 */
(PID.TID 0000.0001)                 2.810845823202647E+05,      /* J = 23 */
(PID.TID 0000.0001)                 2.736173771018112E+05,      /* J = 24 */
(PID.TID 0000.0001)                 2.648750305193301E+05,      /* J = 25 */
(PID.TID 0000.0001)                 2.547526806712889E+05,      /* J = 26 */
(PID.TID 0000.0001)                 2.430829951739083E+05,      /* J = 27 */
(PID.TID 0000.0001)                 2.295958105911512E+05,      /* J = 28 */
(PID.TID 0000.0001)                 2.138410773065497E+05,      /* J = 29 */
(PID.TID 0000.0001)                 1.950254041626018E+05,      /* J = 30 */
(PID.TID 0000.0001)                 1.716197227386011E+05,      /* J = 31 */
(PID.TID 0000.0001)                 1.403701524205398E+05       /* J = 32 */
(PID.TID 0000.0001)     ;
(PID.TID 0000.0001) dyG =  /* dyG(:,1,:,1) ( units: m ) */
(PID.TID 0000.0001)                 1.009837800879055E+05,      /* I =  1 */
(PID.TID 0000.0001)                 1.403701524205398E+05,      /* I =  2 */
(PID.TID 0000.0001)                 1.716197227386011E+05,      /* I =  3 */
(PID.TID 0000.0001)      . . .
(PID.TID 0000.0001)                 2.963715635865306E+05,      /* I = 46 */
(PID.TID 0000.0001)                 2.991805843171258E+05,      /* I = 47 */
(PID.TID 0000.0001)                 3.008638765647886E+05,      /* I = 48 */
(PID.TID 0000.0001)                 3.014246674484008E+05,      /* I = 49 */
(PID.TID 0000.0001)                 3.008638765647886E+05,      /* I = 50 */
(PID.TID 0000.0001)                 2.991805843171258E+05,      /* I = 51 */
(PID.TID 0000.0001)      . . .
(PID.TID 0000.0001)                 1.950254041626018E+05,      /* I = 94 */
(PID.TID 0000.0001)                 1.716197227386011E+05,      /* I = 95 */
(PID.TID 0000.0001)                 1.403701524205398E+05,      /* I = 96 */
(PID.TID 0000.0001)                 1.009837800879055E+05,      /* I = 97 */
(PID.TID 0000.0001)                 1.403701524205398E+05,      /* I = 98 */
(PID.TID 0000.0001)                 1.716197227386011E+05,      /* I = 99 */
(PID.TID 0000.0001)      . . .
(PID.TID 0000.0001)                 2.963715635865306E+05,      /* I =142 */
(PID.TID 0000.0001)                 2.991805843171258E+05,      /* I =143 */
(PID.TID 0000.0001)                 3.008638765647886E+05,      /* I =144 */
(PID.TID 0000.0001)                 3.014246674484008E+05,      /* I =145 */
(PID.TID 0000.0001)                 3.008638765647886E+05,      /* I =146 */
(PID.TID 0000.0001)                 2.991805843171258E+05,      /* I =147 */
(PID.TID 0000.0001)      . . .
(PID.TID 0000.0001)                 1.950254041626018E+05,      /* I =190 */
(PID.TID 0000.0001)                 1.716197227386011E+05,      /* I =191 */
(PID.TID 0000.0001)                 1.403701524205398E+05       /* I =192 */
(PID.TID 0000.0001)     ;
(PID.TID 0000.0001) dyG =  /* dyG(1,:,1,:) ( units: m ) */
(PID.TID 0000.0001)                 1.009837800879055E+05,      /* J =  1 */
(PID.TID 0000.0001)                 1.534505834330338E+05,      /* J =  2 */
(PID.TID 0000.0001)                 1.823321598773926E+05,      /* J =  3 */
(PID.TID 0000.0001)                 2.038999045536999E+05,      /* J =  4 */
(PID.TID 0000.0001)                 2.213884732245467E+05,      /* J =  5 */
(PID.TID 0000.0001)                 2.361211699596122E+05,      /* J =  6 */
(PID.TID 0000.0001)                 2.487693460283865E+05,      /* J =  7 */
(PID.TID 0000.0001)                 2.597126963772147E+05,      /* J =  8 */
(PID.TID 0000.0001)                 2.691790288994575E+05,      /* J =  9 */
(PID.TID 0000.0001)                 2.773091043277394E+05,      /* J = 10 */
(PID.TID 0000.0001)                 2.841906470085516E+05,      /* J = 11 */
(PID.TID 0000.0001)                 2.898778860929753E+05,      /* J = 12 */
(PID.TID 0000.0001)                 2.944035815526416E+05,      /* J = 13 */
(PID.TID 0000.0001)                 2.977867909042096E+05,      /* J = 14 */
(PID.TID 0000.0001)                 3.000380090330854E+05,      /* J = 15 */
(PID.TID 0000.0001)     2 @  3.011625828699101E+05,             /* J = 16: 17 */
(PID.TID 0000.0001)                 3.000380090330854E+05,      /* J = 18 */
(PID.TID 0000.0001)                 2.977867909042096E+05,      /* J = 19 */
(PID.TID 0000.0001)                 2.944035815526416E+05,      /* J = 20 */
(PID.TID 0000.0001)                 2.898778860929753E+05,      /* J = 21 */
(PID.TID 0000.0001)                 2.841906470085516E+05,      /* J = 22 */
(PID.TID 0000.0001)                 2.773091043277394E+05,      /* J = 23 */
(PID.TID 0000.0001)                 2.691790288994575E+05,      /* J = 24 */
(PID.TID 0000.0001)                 2.597126963772147E+05,      /* J = 25 */
(PID.TID 0000.0001)                 2.487693460283865E+05,      /* J = 26 */
(PID.TID 0000.0001)                 2.361211699596122E+05,      /* J = 27 */
(PID.TID 0000.0001)                 2.213884732245467E+05,      /* J = 28 */
(PID.TID 0000.0001)                 2.038999045536999E+05,      /* J = 29 */
(PID.TID 0000.0001)                 1.823321598773926E+05,      /* J = 30 */
(PID.TID 0000.0001)                 1.534505834330338E+05,      /* J = 31 */
(PID.TID 0000.0001)                 1.009837800879055E+05       /* J = 32 */
(PID.TID 0000.0001)     ;
(PID.TID 0000.0001) dxC =  /* dxC(:,1,:,1) ( units: m ) */
(PID.TID 0000.0001)                 1.114203141013064E+05,      /* I =  1 */
(PID.TID 0000.0001)                 1.391343389937106E+05,      /* I =  2 */
(PID.TID 0000.0001)                 1.709574999026266E+05,      /* I =  3 */
(PID.TID 0000.0001)      . . .
(PID.TID 0000.0001)                 2.963038832565530E+05,      /* I = 46 */
(PID.TID 0000.0001)                 2.991142470004740E+05,      /* I = 47 */
(PID.TID 0000.0001)                 3.007982711627968E+05,      /* I = 48 */
(PID.TID 0000.0001)                 3.013593857228136E+05,      /* I = 49 */
(PID.TID 0000.0001)                 3.007982711627968E+05,      /* I = 50 */
(PID.TID 0000.0001)                 2.991142470004740E+05,      /* I = 51 */
(PID.TID 0000.0001)      . . .
(PID.TID 0000.0001)                 1.946503699269892E+05,      /* I = 94 */
(PID.TID 0000.0001)                 1.709574999026266E+05,      /* I = 95 */
(PID.TID 0000.0001)                 1.391343389937106E+05,      /* I = 96 */
(PID.TID 0000.0001)                 1.114203141013064E+05,      /* I = 97 */
(PID.TID 0000.0001)                 1.391343389937106E+05,      /* I = 98 */
(PID.TID 0000.0001)                 1.709574999026266E+05,      /* I = 99 */
(PID.TID 0000.0001)      . . .
(PID.TID 0000.0001)                 2.963038832565530E+05,      /* I =142 */
(PID.TID 0000.0001)                 2.991142470004740E+05,      /* I =143 */
(PID.TID 0000.0001)                 3.007982711627968E+05,      /* I =144 */
(PID.TID 0000.0001)                 3.013593857228136E+05,      /* I =145 */
(PID.TID 0000.0001)                 3.007982711627968E+05,      /* I =146 */
(PID.TID 0000.0001)                 2.991142470004740E+05,      /* I =147 */
(PID.TID 0000.0001)      . . .
(PID.TID 0000.0001)                 1.946503699269892E+05,      /* I =190 */
(PID.TID 0000.0001)                 1.709574999026266E+05,      /* I =191 */
(PID.TID 0000.0001)                 1.391343389937106E+05       /* I =192 */
(PID.TID 0000.0001)     ;
(PID.TID 0000.0001) dxC =  /* dxC(1,:,1,:) ( units: m ) */
(PID.TID 0000.0001)                 1.114203141013064E+05,      /* J =  1 */
(PID.TID 0000.0001)                 1.549545757850771E+05,      /* J =  2 */
(PID.TID 0000.0001)                 1.829777599966776E+05,      /* J =  3 */
(PID.TID 0000.0001)                 2.042717761866506E+05,      /* J =  4 */
(PID.TID 0000.0001)                 2.216367828252819E+05,      /* J =  5 */
(PID.TID 0000.0001)                 2.363029564123586E+05,      /* J =  6 */
(PID.TID 0000.0001)                 2.489113743322025E+05,      /* J =  7 */
(PID.TID 0000.0001)                 2.598293319150326E+05,      /* J =  8 */
(PID.TID 0000.0001)                 2.692787333338535E+05,      /* J =  9 */
(PID.TID 0000.0001)                 2.773972106720365E+05,      /* J = 10 */
(PID.TID 0000.0001)                 2.842706922224557E+05,      /* J = 11 */
(PID.TID 0000.0001)                 2.899523122489403E+05,      /* J = 12 */
(PID.TID 0000.0001)                 2.944741346384699E+05,      /* J = 13 */
(PID.TID 0000.0001)                 2.978547649292580E+05,      /* J = 14 */
(PID.TID 0000.0001)                 3.001044073506459E+05,      /* J = 15 */
(PID.TID 0000.0001)     2 @  3.012281885409289E+05,             /* J = 16: 17 */
(PID.TID 0000.0001)                 3.001044073506459E+05,      /* J = 18 */
(PID.TID 0000.0001)                 2.978547649292580E+05,      /* J = 19 */
(PID.TID 0000.0001)                 2.944741346384699E+05,      /* J = 20 */
(PID.TID 0000.0001)                 2.899523122489403E+05,      /* J = 21 */
(PID.TID 0000.0001)                 2.842706922224557E+05,      /* J = 22 */
(PID.TID 0000.0001)                 2.773972106720365E+05,      /* J = 23 */
(PID.TID 0000.0001)                 2.692787333338535E+05,      /* J = 24 */
(PID.TID 0000.0001)                 2.598293319150326E+05,      /* J = 25 */
(PID.TID 0000.0001)                 2.489113743322025E+05,      /* J = 26 */
(PID.TID 0000.0001)                 2.363029564123586E+05,      /* J = 27 */
(PID.TID 0000.0001)                 2.216367828252819E+05,      /* J = 28 */
(PID.TID 0000.0001)                 2.042717761866506E+05,      /* J = 29 */
(PID.TID 0000.0001)                 1.829777599966776E+05,      /* J = 30 */
(PID.TID 0000.0001)                 1.549545757850771E+05,      /* J = 31 */
(PID.TID 0000.0001)                 1.114203141013064E+05       /* J = 32 */
(PID.TID 0000.0001)     ;
(PID.TID 0000.0001) dyC =  /* dyC(:,1,:,1) ( units: m ) */
(PID.TID 0000.0001)                 1.114203141013064E+05,      /* I =  1 */
(PID.TID 0000.0001)                 1.549545757850771E+05,      /* I =  2 */
(PID.TID 0000.0001)                 1.829777599966776E+05,      /* I =  3 */
(PID.TID 0000.0001)      . . .
(PID.TID 0000.0001)                 2.978547649292580E+05,      /* I = 46 */
(PID.TID 0000.0001)                 3.001044073506459E+05,      /* I = 47 */
(PID.TID 0000.0001)                 3.012281885409289E+05,      /* I = 48 */
(PID.TID 0000.0001)                 3.012281885409289E+05,      /* I = 49 */
(PID.TID 0000.0001)                 3.001044073506459E+05,      /* I = 50 */
(PID.TID 0000.0001)                 2.978547649292580E+05,      /* I = 51 */
(PID.TID 0000.0001)      . . .
(PID.TID 0000.0001)                 1.829777599966776E+05,      /* I = 94 */
(PID.TID 0000.0001)                 1.549545757850771E+05,      /* I = 95 */
(PID.TID 0000.0001)                 1.114203141013064E+05,      /* I = 96 */
(PID.TID 0000.0001)                 1.114203141013064E+05,      /* I = 97 */
(PID.TID 0000.0001)                 1.549545757850771E+05,      /* I = 98 */
(PID.TID 0000.0001)                 1.829777599966776E+05,      /* I = 99 */
(PID.TID 0000.0001)      . . .
(PID.TID 0000.0001)                 2.978547649292580E+05,      /* I =142 */
(PID.TID 0000.0001)                 3.001044073506459E+05,      /* I =143 */
(PID.TID 0000.0001)                 3.012281885409289E+05,      /* I =144 */
(PID.TID 0000.0001)                 3.012281885409289E+05,      /* I =145 */
(PID.TID 0000.0001)                 3.001044073506459E+05,      /* I =146 */
(PID.TID 0000.0001)                 2.978547649292580E+05,      /* I =147 */
(PID.TID 0000.0001)      . . .
(PID.TID 0000.0001)                 1.829777599966776E+05,      /* I =190 */
(PID.TID 0000.0001)                 1.549545757850771E+05,      /* I =191 */
(PID.TID 0000.0001)                 1.114203141013064E+05       /* I =192 */
(PID.TID 0000.0001)     ;
(PID.TID 0000.0001) dyC =  /* dyC(1,:,1,:) ( units: m ) */
(PID.TID 0000.0001)                 1.114203141013064E+05,      /* J =  1 */
(PID.TID 0000.0001)                 1.391343389937106E+05,      /* J =  2 */
(PID.TID 0000.0001)                 1.709574999026266E+05,      /* J =  3 */
(PID.TID 0000.0001)                 1.946503699269892E+05,      /* J =  4 */
(PID.TID 0000.0001)                 2.135964483342134E+05,      /* J =  5 */
(PID.TID 0000.0001)                 2.294195678257306E+05,      /* J =  6 */
(PID.TID 0000.0001)                 2.429464709770498E+05,      /* J =  7 */
(PID.TID 0000.0001)                 2.546408290696998E+05,      /* J =  8 */
(PID.TID 0000.0001)                 2.647791839299727E+05,      /* J =  9 */
(PID.TID 0000.0001)                 2.735321911346108E+05,      /* J = 10 */
(PID.TID 0000.0001)                 2.810065951609633E+05,      /* J = 11 */
(PID.TID 0000.0001)                 2.872689479506990E+05,      /* J = 12 */
(PID.TID 0000.0001)                 2.923599955312932E+05,      /* J = 13 */
(PID.TID 0000.0001)                 2.963038832565530E+05,      /* J = 14 */
(PID.TID 0000.0001)                 2.991142470004740E+05,      /* J = 15 */
(PID.TID 0000.0001)                 3.007982711627968E+05,      /* J = 16 */
(PID.TID 0000.0001)                 3.013593857228136E+05,      /* J = 17 */
(PID.TID 0000.0001)                 3.007982711627968E+05,      /* J = 18 */
(PID.TID 0000.0001)                 2.991142470004740E+05,      /* J = 19 */
(PID.TID 0000.0001)                 2.963038832565530E+05,      /* J = 20 */
(PID.TID 0000.0001)                 2.923599955312932E+05,      /* J = 21 */
(PID.TID 0000.0001)                 2.872689479506990E+05,      /* J = 22 */
(PID.TID 0000.0001)                 2.810065951609633E+05,      /* J = 23 */
(PID.TID 0000.0001)                 2.735321911346108E+05,      /* J = 24 */
(PID.TID 0000.0001)                 2.647791839299727E+05,      /* J = 25 */
(PID.TID 0000.0001)                 2.546408290696998E+05,      /* J = 26 */
(PID.TID 0000.0001)                 2.429464709770498E+05,      /* J = 27 */
(PID.TID 0000.0001)                 2.294195678257306E+05,      /* J = 28 */
(PID.TID 0000.0001)                 2.135964483342134E+05,      /* J = 29 */
(PID.TID 0000.0001)                 1.946503699269892E+05,      /* J = 30 */
(PID.TID 0000.0001)                 1.709574999026266E+05,      /* J = 31 */
(PID.TID 0000.0001)                 1.391343389937106E+05       /* J = 32 */
(PID.TID 0000.0001)     ;
(PID.TID 0000.0001) dxV =  /* dxV(:,1,:,1) ( units: m ) */
(PID.TID 0000.0001)                 8.015229982413632E+04,      /* I =  1 */
(PID.TID 0000.0001)                 1.333130744933864E+05,      /* I =  2 */
(PID.TID 0000.0001)                 1.691744868129062E+05,      /* I =  3 */
(PID.TID 0000.0001)      . . .
(PID.TID 0000.0001)                 2.962371870847826E+05,      /* I = 46 */
(PID.TID 0000.0001)                 2.990534755671296E+05,      /* I = 47 */
(PID.TID 0000.0001)                 3.007409169495504E+05,      /* I = 48 */
(PID.TID 0000.0001)                 3.013031486919771E+05,      /* I = 49 */
(PID.TID 0000.0001)                 3.007409169495504E+05,      /* I = 50 */
(PID.TID 0000.0001)                 2.990534755671296E+05,      /* I = 51 */
(PID.TID 0000.0001)      . . .
(PID.TID 0000.0001)                 1.937548202849060E+05,      /* I = 94 */
(PID.TID 0000.0001)                 1.691744868129062E+05,      /* I = 95 */
(PID.TID 0000.0001)                 1.333130744933864E+05,      /* I = 96 */
(PID.TID 0000.0001)                 8.015229982413632E+04,      /* I = 97 */
(PID.TID 0000.0001)                 1.333130744933864E+05,      /* I = 98 */
(PID.TID 0000.0001)                 1.691744868129062E+05,      /* I = 99 */
(PID.TID 0000.0001)      . . .
(PID.TID 0000.0001)                 2.962371870847826E+05,      /* I =142 */
(PID.TID 0000.0001)                 2.990534755671296E+05,      /* I =143 */
(PID.TID 0000.0001)                 3.007409169495504E+05,      /* I =144 */
(PID.TID 0000.0001)                 3.013031486919771E+05,      /* I =145 */
(PID.TID 0000.0001)                 3.007409169495504E+05,      /* I =146 */
(PID.TID 0000.0001)                 2.990534755671296E+05,      /* I =147 */
(PID.TID 0000.0001)      . . .
(PID.TID 0000.0001)                 1.937548202849060E+05,      /* I =190 */
(PID.TID 0000.0001)                 1.691744868129062E+05,      /* I =191 */
(PID.TID 0000.0001)                 1.333130744933864E+05       /* I =192 */
(PID.TID 0000.0001)     ;
(PID.TID 0000.0001) dxV =  /* dxV(1,:,1,:) ( units: m ) */
(PID.TID 0000.0001)                 8.015229982413632E+04,      /* J =  1 */
(PID.TID 0000.0001)                 1.362652340208229E+05,      /* J =  2 */
(PID.TID 0000.0001)                 1.701080315742101E+05,      /* J =  3 */
(PID.TID 0000.0001)                 1.942331448101592E+05,      /* J =  4 */
(PID.TID 0000.0001)                 2.133486626971531E+05,      /* J =  5 */
(PID.TID 0000.0001)                 2.292584591272880E+05,      /* J =  6 */
(PID.TID 0000.0001)                 2.428369969078989E+05,      /* J =  7 */
(PID.TID 0000.0001)                 2.545652950875683E+05,      /* J =  8 */
(PID.TID 0000.0001)                 2.647274964828301E+05,      /* J =  9 */
(PID.TID 0000.0001)                 2.734980225206389E+05,      /* J = 10 */
(PID.TID 0000.0001)                 2.809856491525217E+05,      /* J = 11 */
(PID.TID 0000.0001)                 2.872580915202295E+05,      /* J = 12 */
(PID.TID 0000.0001)                 2.923567890694162E+05,      /* J = 13 */
(PID.TID 0000.0001)                 2.963063101754721E+05,      /* J = 14 */
(PID.TID 0000.0001)                 2.991205495886625E+05,      /* J = 15 */
(PID.TID 0000.0001)                 3.008068453676764E+05,      /* J = 16 */
(PID.TID 0000.0001)                 3.013686170436881E+05,      /* J = 17 */
(PID.TID 0000.0001)                 3.008068453676764E+05,      /* J = 18 */
(PID.TID 0000.0001)                 2.991205495886625E+05,      /* J = 19 */
(PID.TID 0000.0001)                 2.963063101754721E+05,      /* J = 20 */
(PID.TID 0000.0001)                 2.923567890694162E+05,      /* J = 21 */
(PID.TID 0000.0001)                 2.872580915202295E+05,      /* J = 22 */
(PID.TID 0000.0001)                 2.809856491525217E+05,      /* J = 23 */
(PID.TID 0000.0001)                 2.734980225206389E+05,      /* J = 24 */
(PID.TID 0000.0001)                 2.647274964828301E+05,      /* J = 25 */
(PID.TID 0000.0001)                 2.545652950875683E+05,      /* J = 26 */
(PID.TID 0000.0001)                 2.428369969078989E+05,      /* J = 27 */
(PID.TID 0000.0001)                 2.292584591272880E+05,      /* J = 28 */
(PID.TID 0000.0001)                 2.133486626971531E+05,      /* J = 29 */
(PID.TID 0000.0001)                 1.942331448101592E+05,      /* J = 30 */
(PID.TID 0000.0001)                 1.701080315742101E+05,      /* J = 31 */
(PID.TID 0000.0001)                 1.362652340208229E+05       /* J = 32 */
(PID.TID 0000.0001)     ;
(PID.TID 0000.0001) dyU =  /* dyU(:,1,:,1) ( units: m ) */
(PID.TID 0000.0001)                 8.015229982413632E+04,      /* I =  1 */
(PID.TID 0000.0001)                 1.362652340208229E+05,      /* I =  2 */
(PID.TID 0000.0001)                 1.701080315742101E+05,      /* I =  3 */
(PID.TID 0000.0001)      . . .
(PID.TID 0000.0001)                 2.963063101754721E+05,      /* I = 46 */
(PID.TID 0000.0001)                 2.991205495886625E+05,      /* I = 47 */
(PID.TID 0000.0001)                 3.008068453676764E+05,      /* I = 48 */
(PID.TID 0000.0001)                 3.013686170436881E+05,      /* I = 49 */
(PID.TID 0000.0001)                 3.008068453676764E+05,      /* I = 50 */
(PID.TID 0000.0001)                 2.991205495886625E+05,      /* I = 51 */
(PID.TID 0000.0001)      . . .
(PID.TID 0000.0001)                 1.942331448101592E+05,      /* I = 94 */
(PID.TID 0000.0001)                 1.701080315742101E+05,      /* I = 95 */
(PID.TID 0000.0001)                 1.362652340208229E+05,      /* I = 96 */
(PID.TID 0000.0001)                 8.015229982413632E+04,      /* I = 97 */
(PID.TID 0000.0001)                 1.362652340208229E+05,      /* I = 98 */
(PID.TID 0000.0001)                 1.701080315742101E+05,      /* I = 99 */
(PID.TID 0000.0001)      . . .
(PID.TID 0000.0001)                 2.963063101754721E+05,      /* I =142 */
(PID.TID 0000.0001)                 2.991205495886625E+05,      /* I =143 */
(PID.TID 0000.0001)                 3.008068453676764E+05,      /* I =144 */
(PID.TID 0000.0001)                 3.013686170436881E+05,      /* I =145 */
(PID.TID 0000.0001)                 3.008068453676764E+05,      /* I =146 */
(PID.TID 0000.0001)                 2.991205495886625E+05,      /* I =147 */
(PID.TID 0000.0001)      . . .
(PID.TID 0000.0001)                 1.942331448101592E+05,      /* I =190 */
(PID.TID 0000.0001)                 1.701080315742101E+05,      /* I =191 */
(PID.TID 0000.0001)                 1.362652340208229E+05       /* I =192 */
(PID.TID 0000.0001)     ;
(PID.TID 0000.0001) dyU =  /* dyU(1,:,1,:) ( units: m ) */
(PID.TID 0000.0001)                 8.015229982413632E+04,      /* J =  1 */
(PID.TID 0000.0001)                 1.333130744933864E+05,      /* J =  2 */
(PID.TID 0000.0001)                 1.691744868129062E+05,      /* J =  3 */
(PID.TID 0000.0001)                 1.937548202849060E+05,      /* J =  4 */
(PID.TID 0000.0001)                 2.130490056267208E+05,      /* J =  5 */
(PID.TID 0000.0001)                 2.290479919481738E+05,      /* J =  6 */
(PID.TID 0000.0001)                 2.426774358027003E+05,      /* J =  7 */
(PID.TID 0000.0001)                 2.544372984215561E+05,      /* J =  8 */
(PID.TID 0000.0001)                 2.646201463834826E+05,      /* J =  9 */
(PID.TID 0000.0001)                 2.734046499619031E+05,      /* J = 10 */
(PID.TID 0000.0001)                 2.809019351693761E+05,      /* J = 11 */
(PID.TID 0000.0001)                 2.871811105274442E+05,      /* J = 12 */
(PID.TID 0000.0001)                 2.922844849381675E+05,      /* J = 13 */
(PID.TID 0000.0001)                 2.962371870847826E+05,      /* J = 14 */
(PID.TID 0000.0001)                 2.990534755671296E+05,      /* J = 15 */
(PID.TID 0000.0001)                 3.007409169495504E+05,      /* J = 16 */
(PID.TID 0000.0001)                 3.013031486919771E+05,      /* J = 17 */
(PID.TID 0000.0001)                 3.007409169495504E+05,      /* J = 18 */
(PID.TID 0000.0001)                 2.990534755671296E+05,      /* J = 19 */
(PID.TID 0000.0001)                 2.962371870847826E+05,      /* J = 20 */
(PID.TID 0000.0001)                 2.922844849381675E+05,      /* J = 21 */
(PID.TID 0000.0001)                 2.871811105274442E+05,      /* J = 22 */
(PID.TID 0000.0001)                 2.809019351693761E+05,      /* J = 23 */
(PID.TID 0000.0001)                 2.734046499619031E+05,      /* J = 24 */
(PID.TID 0000.0001)                 2.646201463834826E+05,      /* J = 25 */
(PID.TID 0000.0001)                 2.544372984215561E+05,      /* J = 26 */
(PID.TID 0000.0001)                 2.426774358027003E+05,      /* J = 27 */
(PID.TID 0000.0001)                 2.290479919481738E+05,      /* J = 28 */
(PID.TID 0000.0001)                 2.130490056267208E+05,      /* J = 29 */
(PID.TID 0000.0001)                 1.937548202849060E+05,      /* J = 30 */
(PID.TID 0000.0001)                 1.691744868129062E+05,      /* J = 31 */
(PID.TID 0000.0001)                 1.333130744933864E+05       /* J = 32 */
(PID.TID 0000.0001)     ;
(PID.TID 0000.0001) rA  =  /* rA (:,1,:,1) ( units: m^2 ) */
(PID.TID 0000.0001)                 1.401900702255611E+10,      /* I =  1 */
(PID.TID 0000.0001)                 2.459906945574446E+10,      /* I =  2 */
(PID.TID 0000.0001)                 3.378518544307869E+10,      /* I =  3 */
(PID.TID 0000.0001)      . . .
(PID.TID 0000.0001)                 8.874277443041928E+10,      /* I = 46 */
(PID.TID 0000.0001)                 9.008620045350865E+10,      /* I = 47 */
(PID.TID 0000.0001)                 9.076111290418457E+10,      /* I = 48 */
(PID.TID 0000.0001)                 9.076111290422060E+10,      /* I = 49 */
(PID.TID 0000.0001)                 9.008620045354469E+10,      /* I = 50 */
(PID.TID 0000.0001)                 8.874277443041928E+10,      /* I = 51 */
(PID.TID 0000.0001)      . . .
(PID.TID 0000.0001)                 3.378518544304265E+10,      /* I = 94 */
(PID.TID 0000.0001)                 2.459906945574446E+10,      /* I = 95 */
(PID.TID 0000.0001)                 1.401900702259215E+10,      /* I = 96 */
(PID.TID 0000.0001)                 1.401900702255611E+10,      /* I = 97 */
(PID.TID 0000.0001)                 2.459906945574446E+10,      /* I = 98 */
(PID.TID 0000.0001)                 3.378518544307869E+10,      /* I = 99 */
(PID.TID 0000.0001)      . . .
(PID.TID 0000.0001)                 8.874277443041928E+10,      /* I =142 */
(PID.TID 0000.0001)                 9.008620045350865E+10,      /* I =143 */
(PID.TID 0000.0001)                 9.076111290418457E+10,      /* I =144 */
(PID.TID 0000.0001)                 9.076111290422060E+10,      /* I =145 */
(PID.TID 0000.0001)                 9.008620045354469E+10,      /* I =146 */
(PID.TID 0000.0001)                 8.874277443041928E+10,      /* I =147 */
(PID.TID 0000.0001)      . . .
(PID.TID 0000.0001)                 3.378518544304265E+10,      /* I =190 */
(PID.TID 0000.0001)                 2.459906945574446E+10,      /* I =191 */
(PID.TID 0000.0001)                 1.401900702259215E+10       /* I =192 */
(PID.TID 0000.0001)     ;
(PID.TID 0000.0001) rA  =  /* rA (1,:,1,:) ( units: m^2 ) */
(PID.TID 0000.0001)                 1.401900702255611E+10,      /* J =  1 */
(PID.TID 0000.0001)                 2.459906945574446E+10,      /* J =  2 */
(PID.TID 0000.0001)                 3.378518544307869E+10,      /* J =  3 */
(PID.TID 0000.0001)                 4.192037169898667E+10,      /* J =  4 */
(PID.TID 0000.0001)                 4.925938996118163E+10,      /* J =  5 */
(PID.TID 0000.0001)                 5.594154126607553E+10,      /* J =  6 */
(PID.TID 0000.0001)                 6.203683527776127E+10,      /* J =  7 */
(PID.TID 0000.0001)                 6.757541173817516E+10,      /* J =  8 */
(PID.TID 0000.0001)                 7.256353271748119E+10,      /* J =  9 */
(PID.TID 0000.0001)                 7.699293007098555E+10,      /* J = 10 */
(PID.TID 0000.0001)                 8.084683449728902E+10,      /* J = 11 */
(PID.TID 0000.0001)                 8.410423102799828E+10,      /* J = 12 */
(PID.TID 0000.0001)                 8.674306976737517E+10,      /* J = 13 */
(PID.TID 0000.0001)                 8.874277443041928E+10,      /* J = 14 */
(PID.TID 0000.0001)                 9.008620045350865E+10,      /* J = 15 */
(PID.TID 0000.0001)                 9.076111290418457E+10,      /* J = 16 */
(PID.TID 0000.0001)                 9.076111290422060E+10,      /* J = 17 */
(PID.TID 0000.0001)                 9.008620045354469E+10,      /* J = 18 */
(PID.TID 0000.0001)                 8.874277443041928E+10,      /* J = 19 */
(PID.TID 0000.0001)                 8.674306976737517E+10,      /* J = 20 */
(PID.TID 0000.0001)                 8.410423102799828E+10,      /* J = 21 */
(PID.TID 0000.0001)                 8.084683449728902E+10,      /* J = 22 */
(PID.TID 0000.0001)                 7.699293007098555E+10,      /* J = 23 */
(PID.TID 0000.0001)                 7.256353271748119E+10,      /* J = 24 */
(PID.TID 0000.0001)                 6.757541173817516E+10,      /* J = 25 */
(PID.TID 0000.0001)                 6.203683527772523E+10,      /* J = 26 */
(PID.TID 0000.0001)                 5.594154126607553E+10,      /* J = 27 */
(PID.TID 0000.0001)                 4.925938996118163E+10,      /* J = 28 */
(PID.TID 0000.0001)                 4.192037169898667E+10,      /* J = 29 */
(PID.TID 0000.0001)                 3.378518544307869E+10,      /* J = 30 */
(PID.TID 0000.0001)                 2.459906945574446E+10,      /* J = 31 */
(PID.TID 0000.0001)                 1.401900702259215E+10       /* J = 32 */
(PID.TID 0000.0001)     ;
(PID.TID 0000.0001) rAw =  /* rAw(:,1,:,1) ( units: m^2 ) */
(PID.TID 0000.0001)                 1.216690346714270E+10,      /* I =  1 */
(PID.TID 0000.0001)                 1.974052138506315E+10,      /* I =  2 */
(PID.TID 0000.0001)                 2.943712825252015E+10,      /* I =  3 */
(PID.TID 0000.0001)      . . .
(PID.TID 0000.0001)                 8.781353403175085E+10,      /* I = 46 */
(PID.TID 0000.0001)                 8.948571540392021E+10,      /* I = 47 */
(PID.TID 0000.0001)                 9.049530583086168E+10,      /* I = 48 */
(PID.TID 0000.0001)                 9.083293515008307E+10,      /* I = 49 */
(PID.TID 0000.0001)                 9.049530583087070E+10,      /* I = 50 */
(PID.TID 0000.0001)                 8.948571540391121E+10,      /* I = 51 */
(PID.TID 0000.0001)      . . .
(PID.TID 0000.0001)                 3.801790263325260E+10,      /* I = 94 */
(PID.TID 0000.0001)                 2.943712825251114E+10,      /* I = 95 */
(PID.TID 0000.0001)                 1.974052138509018E+10,      /* I = 96 */
(PID.TID 0000.0001)                 1.216690346714270E+10,      /* I = 97 */
(PID.TID 0000.0001)                 1.974052138506315E+10,      /* I = 98 */
(PID.TID 0000.0001)                 2.943712825252015E+10,      /* I = 99 */
(PID.TID 0000.0001)      . . .
(PID.TID 0000.0001)                 8.781353403175085E+10,      /* I =142 */
(PID.TID 0000.0001)                 8.948571540392021E+10,      /* I =143 */
(PID.TID 0000.0001)                 9.049530583086168E+10,      /* I =144 */
(PID.TID 0000.0001)                 9.083293515008307E+10,      /* I =145 */
(PID.TID 0000.0001)                 9.049530583087070E+10,      /* I =146 */
(PID.TID 0000.0001)                 8.948571540391121E+10,      /* I =147 */
(PID.TID 0000.0001)      . . .
(PID.TID 0000.0001)                 3.801790263325260E+10,      /* I =190 */
(PID.TID 0000.0001)                 2.943712825251114E+10,      /* I =191 */
(PID.TID 0000.0001)                 1.974052138509018E+10       /* I =192 */
(PID.TID 0000.0001)     ;
(PID.TID 0000.0001) rAw =  /* rAw(1,:,1,:) ( units: m^2 ) */
(PID.TID 0000.0001)                 1.216690346714270E+10,      /* J =  1 */
(PID.TID 0000.0001)                 2.390126200743558E+10,      /* J =  2 */
(PID.TID 0000.0001)                 3.341968103208270E+10,      /* J =  3 */
(PID.TID 0000.0001)                 4.168532893152940E+10,      /* J =  4 */
(PID.TID 0000.0001)                 4.909074590409593E+10,      /* J =  5 */
(PID.TID 0000.0001)                 5.581203765722643E+10,      /* J =  6 */
(PID.TID 0000.0001)                 6.193257577506788E+10,      /* J =  7 */
(PID.TID 0000.0001)                 6.748840226738273E+10,      /* J =  8 */
(PID.TID 0000.0001)                 7.248875782324815E+10,      /* J =  9 */
(PID.TID 0000.0001)                 7.692702995909871E+10,      /* J = 10 */
(PID.TID 0000.0001)                 8.078743937057304E+10,      /* J = 11 */
(PID.TID 0000.0001)                 8.404959656062837E+10,      /* J = 12 */
(PID.TID 0000.0001)                 8.669186205742538E+10,      /* J = 13 */
(PID.TID 0000.0001)                 8.869393350723613E+10,      /* J = 14 */
(PID.TID 0000.0001)                 9.003884657168852E+10,      /* J = 15 */
(PID.TID 0000.0001)     2 @  9.071447638299399E+10,             /* J = 16: 17 */
(PID.TID 0000.0001)                 9.003884657168852E+10,      /* J = 18 */
(PID.TID 0000.0001)                 8.869393350723613E+10,      /* J = 19 */
(PID.TID 0000.0001)                 8.669186205742538E+10,      /* J = 20 */
(PID.TID 0000.0001)                 8.404959656062837E+10,      /* J = 21 */
(PID.TID 0000.0001)                 8.078743937057304E+10,      /* J = 22 */
(PID.TID 0000.0001)                 7.692702995909871E+10,      /* J = 23 */
(PID.TID 0000.0001)                 7.248875782324815E+10,      /* J = 24 */
(PID.TID 0000.0001)                 6.748840226738273E+10,      /* J = 25 */
(PID.TID 0000.0001)                 6.193257577506788E+10,      /* J = 26 */
(PID.TID 0000.0001)                 5.581203765722643E+10,      /* J = 27 */
(PID.TID 0000.0001)                 4.909074590409593E+10,      /* J = 28 */
(PID.TID 0000.0001)                 4.168532893152940E+10,      /* J = 29 */
(PID.TID 0000.0001)                 3.341968103208270E+10,      /* J = 30 */
(PID.TID 0000.0001)                 2.390126200743558E+10,      /* J = 31 */
(PID.TID 0000.0001)                 1.216690346714270E+10       /* J = 32 */
(PID.TID 0000.0001)     ;
(PID.TID 0000.0001) rAs =  /* rAs(:,1,:,1) ( units: m^2 ) */
(PID.TID 0000.0001)                 1.216690346714270E+10,      /* I =  1 */
(PID.TID 0000.0001)                 2.390126200743558E+10,      /* I =  2 */
(PID.TID 0000.0001)                 3.341968103208270E+10,      /* I =  3 */
(PID.TID 0000.0001)      . . .
(PID.TID 0000.0001)                 8.869393350723613E+10,      /* I = 46 */
(PID.TID 0000.0001)                 9.003884657168852E+10,      /* I = 47 */
(PID.TID 0000.0001)                 9.071447638299399E+10,      /* I = 48 */
(PID.TID 0000.0001)                 9.071447638299399E+10,      /* I = 49 */
(PID.TID 0000.0001)                 9.003884657168852E+10,      /* I = 50 */
(PID.TID 0000.0001)                 8.869393350723613E+10,      /* I = 51 */
(PID.TID 0000.0001)      . . .
(PID.TID 0000.0001)                 3.341968103208270E+10,      /* I = 94 */
(PID.TID 0000.0001)                 2.390126200743558E+10,      /* I = 95 */
(PID.TID 0000.0001)                 1.216690346714270E+10,      /* I = 96 */
(PID.TID 0000.0001)                 1.216690346714270E+10,      /* I = 97 */
(PID.TID 0000.0001)                 2.390126200743558E+10,      /* I = 98 */
(PID.TID 0000.0001)                 3.341968103208270E+10,      /* I = 99 */
(PID.TID 0000.0001)      . . .
(PID.TID 0000.0001)                 8.869393350723613E+10,      /* I =142 */
(PID.TID 0000.0001)                 9.003884657168852E+10,      /* I =143 */
(PID.TID 0000.0001)                 9.071447638299399E+10,      /* I =144 */
(PID.TID 0000.0001)                 9.071447638299399E+10,      /* I =145 */
(PID.TID 0000.0001)                 9.003884657168852E+10,      /* I =146 */
(PID.TID 0000.0001)                 8.869393350723613E+10,      /* I =147 */
(PID.TID 0000.0001)      . . .
(PID.TID 0000.0001)                 3.341968103208270E+10,      /* I =190 */
(PID.TID 0000.0001)                 2.390126200743558E+10,      /* I =191 */
(PID.TID 0000.0001)                 1.216690346714270E+10       /* I =192 */
(PID.TID 0000.0001)     ;
(PID.TID 0000.0001) rAs =  /* rAs(1,:,1,:) ( units: m^2 ) */
(PID.TID 0000.0001)                 1.216690346714270E+10,      /* J =  1 */
(PID.TID 0000.0001)                 1.974052138506315E+10,      /* J =  2 */
(PID.TID 0000.0001)                 2.943712825252015E+10,      /* J =  3 */
(PID.TID 0000.0001)                 3.801790263324359E+10,      /* J =  4 */
(PID.TID 0000.0001)                 4.571243814189866E+10,      /* J =  5 */
(PID.TID 0000.0001)                 5.269930713599979E+10,      /* J =  6 */
(PID.TID 0000.0001)                 5.907428494299063E+10,      /* J =  7 */
(PID.TID 0000.0001)                 6.488320895111514E+10,      /* J =  8 */
(PID.TID 0000.0001)                 7.014205907741882E+10,      /* J =  9 */
(PID.TID 0000.0001)                 7.484854821847499E+10,      /* J = 10 */
(PID.TID 0000.0001)                 7.898934631431560E+10,      /* J = 11 */
(PID.TID 0000.0001)                 8.254500894894537E+10,      /* J = 12 */
(PID.TID 0000.0001)                 8.549360686473492E+10,      /* J = 13 */
(PID.TID 0000.0001)                 8.781353403175085E+10,      /* J = 14 */
(PID.TID 0000.0001)                 8.948571540392021E+10,      /* J = 15 */
(PID.TID 0000.0001)                 9.049530583086168E+10,      /* J = 16 */
(PID.TID 0000.0001)                 9.083293515008307E+10,      /* J = 17 */
(PID.TID 0000.0001)                 9.049530583087070E+10,      /* J = 18 */
(PID.TID 0000.0001)                 8.948571540391121E+10,      /* J = 19 */
(PID.TID 0000.0001)                 8.781353403174185E+10,      /* J = 20 */
(PID.TID 0000.0001)                 8.549360686467184E+10,      /* J = 21 */
(PID.TID 0000.0001)                 8.254500894890933E+10,      /* J = 22 */
(PID.TID 0000.0001)                 7.898934631434262E+10,      /* J = 23 */
(PID.TID 0000.0001)                 7.484854821844795E+10,      /* J = 24 */
(PID.TID 0000.0001)                 7.014205907742783E+10,      /* J = 25 */
(PID.TID 0000.0001)                 6.488320895111514E+10,      /* J = 26 */
(PID.TID 0000.0001)                 5.907428494299063E+10,      /* J = 27 */
(PID.TID 0000.0001)                 5.269930713599078E+10,      /* J = 28 */
(PID.TID 0000.0001)                 4.571243814190767E+10,      /* J = 29 */
(PID.TID 0000.0001)                 3.801790263325260E+10,      /* J = 30 */
(PID.TID 0000.0001)                 2.943712825251114E+10,      /* J = 31 */
(PID.TID 0000.0001)                 1.974052138509018E+10       /* J = 32 */
(PID.TID 0000.0001)     ;
(PID.TID 0000.0001) globalArea = /* Integrated horizontal Area (m^2) */
(PID.TID 0000.0001)                 5.099043637817220E+14
(PID.TID 0000.0001)     ;
(PID.TID 0000.0001) hasWetCSCorners = /* Domain contains CS corners (True/False) */
(PID.TID 0000.0001)                   T
(PID.TID 0000.0001)     ;
(PID.TID 0000.0001) // =======================================================
(PID.TID 0000.0001) // End of Model config. summary
(PID.TID 0000.0001) // =======================================================
(PID.TID 0000.0001) 
(PID.TID 0000.0001) == Packages configuration : Check & print summary ==
(PID.TID 0000.0001) 
(PID.TID 0000.0001) THSICE_CHECK: #define THSICE
(PID.TID 0000.0001) GAD_CHECK: #define ALLOW_GENERIC_ADVDIFF
(PID.TID 0000.0001) // =======================================================
(PID.TID 0000.0001) // Check Model config. (CONFIG_CHECK):
(PID.TID 0000.0001) // CONFIG_CHECK : Normal End
(PID.TID 0000.0001) // =======================================================
(PID.TID 0000.0001) 
(PID.TID 0000.0001) // =======================================================
(PID.TID 0000.0001) // Field Ocean mixed-layer depth on atmos grid at iteration          1
(PID.TID 0000.0001) // CMIN =          5.000000000000000E+01
(PID.TID 0000.0001) // CMAX =          5.000000000000000E+01
(PID.TID 0000.0001) // CINT =          0.000000000000000E+00
(PID.TID 0000.0001) // SYMBOLS (CMIN->CMAX): -abcdefghijklmnopqrstuvwxyz+
(PID.TID 0000.0001) //                  0.0: .
(PID.TID 0000.0001) // RANGE I (Lo:Hi:Step):(    -1:   194:     1)
(PID.TID 0000.0001) // RANGE J (Lo:Hi:Step):(    34:    -1:    -1)
(PID.TID 0000.0001) // RANGE K (Lo:Hi:Step):(   1:   1:   1)
(PID.TID 0000.0001) // =======================================================
(PID.TID 0000.0001) // =======================================================
(PID.TID 0000.0001) // END OF FIELD                                          =
(PID.TID 0000.0001) // =======================================================
(PID.TID 0000.0001) 
(PID.TID 0000.0001) Start initial hydrostatic pressure computation
(PID.TID 0000.0001) Pressure is predetermined for buoyancyRelation ATMOSPHERIC
(PID.TID 0000.0001) 
(PID.TID 0000.0001)  MDS_READ_FIELD: opening global file: land_grT_ini.cpl.bin
(PID.TID 0000.0001)  MDS_READ_FIELD: opening global file: land_grW_ini.mn.bin
(PID.TID 0000.0001)  MDS_READ_FIELD: opening global file: land_snw_ini.cpl.bin
(PID.TID 0000.0001) // =======================================================
(PID.TID 0000.0001) // Model current state
(PID.TID 0000.0001) // =======================================================
(PID.TID 0000.0001) 
(PID.TID 0000.0001) // =======================================================
(PID.TID 0000.0001) // Begin MONITOR dynamic field statistics
(PID.TID 0000.0001) // =======================================================
(PID.TID 0000.0001) %MON time_tsnumber                =                     0
(PID.TID 0000.0001) %MON time_secondsf                =   0.0000000000000E+00
(PID.TID 0000.0001) %MON dynstat_eta_max              =   0.0000000000000E+00
(PID.TID 0000.0001) %MON dynstat_eta_min              =   0.0000000000000E+00
(PID.TID 0000.0001) %MON dynstat_eta_mean             =   0.0000000000000E+00
(PID.TID 0000.0001) %MON dynstat_eta_sd               =   0.0000000000000E+00
(PID.TID 0000.0001) %MON dynstat_eta_del2             =   0.0000000000000E+00
(PID.TID 0000.0001) %MON dynstat_uvel_max             =   0.0000000000000E+00
(PID.TID 0000.0001) %MON dynstat_uvel_min             =   0.0000000000000E+00
(PID.TID 0000.0001) %MON dynstat_uvel_mean            =   0.0000000000000E+00
(PID.TID 0000.0001) %MON dynstat_uvel_sd              =   0.0000000000000E+00
(PID.TID 0000.0001) %MON dynstat_uvel_del2            =   0.0000000000000E+00
(PID.TID 0000.0001) %MON dynstat_vvel_max             =   0.0000000000000E+00
(PID.TID 0000.0001) %MON dynstat_vvel_min             =   0.0000000000000E+00
(PID.TID 0000.0001) %MON dynstat_vvel_mean            =   0.0000000000000E+00
(PID.TID 0000.0001) %MON dynstat_vvel_sd              =   0.0000000000000E+00
(PID.TID 0000.0001) %MON dynstat_vvel_del2            =   0.0000000000000E+00
(PID.TID 0000.0001) %MON dynstat_wvel_max             =   0.0000000000000E+00
(PID.TID 0000.0001) %MON dynstat_wvel_min             =   0.0000000000000E+00
(PID.TID 0000.0001) %MON dynstat_wvel_mean            =   0.0000000000000E+00
(PID.TID 0000.0001) %MON dynstat_wvel_sd              =   0.0000000000000E+00
(PID.TID 0000.0001) %MON dynstat_wvel_del2            =   0.0000000000000E+00
(PID.TID 0000.0001) %MON dynstat_theta_max            =   4.3740000000000E+02
(PID.TID 0000.0001) %MON dynstat_theta_min            =   2.8960000000000E+02
(PID.TID 0000.0001) %MON dynstat_theta_mean           =   3.3171566851928E+02
(PID.TID 0000.0001) %MON dynstat_theta_sd             =   4.7418367738381E+01
(PID.TID 0000.0001) %MON dynstat_theta_del2           =   0.0000000000000E+00
(PID.TID 0000.0001) %MON dynstat_salt_max             =   0.0000000000000E+00
(PID.TID 0000.0001) %MON dynstat_salt_min             =   0.0000000000000E+00
(PID.TID 0000.0001) %MON dynstat_salt_mean            =   0.0000000000000E+00
(PID.TID 0000.0001) %MON dynstat_salt_sd              =   0.0000000000000E+00
(PID.TID 0000.0001) %MON dynstat_salt_del2            =   0.0000000000000E+00
(PID.TID 0000.0001) %MON advcfl_uvel_max              =   0.0000000000000E+00
(PID.TID 0000.0001) %MON advcfl_vvel_max              =   0.0000000000000E+00
(PID.TID 0000.0001) %MON advcfl_wvel_max              =   0.0000000000000E+00
(PID.TID 0000.0001) %MON advcfl_W_hf_max              =   0.0000000000000E+00
(PID.TID 0000.0001) %MON am_eta_mean                  =   0.0000000000000E+00
(PID.TID 0000.0001) %MON am_uZo_mean                  =   0.0000000000000E+00
(PID.TID 0000.0001) %MON am_tot_mean                  =   0.0000000000000E+00
(PID.TID 0000.0001) %MON pe_b_mean                    =   0.0000000000000E+00
(PID.TID 0000.0001) %MON ke_max                       =   0.0000000000000E+00
(PID.TID 0000.0001) %MON ke_mean                      =   0.0000000000000E+00
(PID.TID 0000.0001) %MON ke_vol                       =   4.9523908919847E+19
(PID.TID 0000.0001) %MON vort_r_min                   =   0.0000000000000E+00
(PID.TID 0000.0001) %MON vort_r_max                   =   0.0000000000000E+00
(PID.TID 0000.0001) %MON vort_a_mean                  =   6.7242814765318E-08
(PID.TID 0000.0001) %MON vort_a_sd                    =   8.3936822068631E-05
(PID.TID 0000.0001) %MON vort_p_mean                  =   6.8939448519602E-08
(PID.TID 0000.0001) %MON vort_p_sd                    =   9.1626513531368E-05
(PID.TID 0000.0001) %MON surfExpan_theta_mean         =   0.0000000000000E+00
(PID.TID 0000.0001) %MON surfExpan_salt_mean          =   0.0000000000000E+00
(PID.TID 0000.0001) %MON surfExpan_Heat_mean          =   0.0000000000000E+00
(PID.TID 0000.0001) %MON En_Budget_T2PE_mean          =   0.0000000000000E+00
(PID.TID 0000.0001) // =======================================================
(PID.TID 0000.0001) // End MONITOR dynamic field statistics
(PID.TID 0000.0001) // =======================================================
(PID.TID 0000.0001) // =======================================================
(PID.TID 0000.0001) // Begin MONITOR Land statistics
(PID.TID 0000.0001) // =======================================================
(PID.TID 0000.0001) %MON land_time_sec                =   0.0000000000000E+00
(PID.TID 0000.0001) %MON land_SnwH_ave_G              =   1.5327595968918E-01
(PID.TID 0000.0001) %MON land_SnwH_ave_S              =   5.5906277570341E-01
(PID.TID 0000.0001) %MON land_SnwH_ave_T              =   2.7405468051285E-07
(PID.TID 0000.0001) %MON land_SnwH_ave_N              =   1.2399418417812E-01
(PID.TID 0000.0001) %MON land_SnwH_max_S              =   1.0000000000000E+00
(PID.TID 0000.0001) %MON land_SnwH_max_T              =   7.7654719504950E-05
(PID.TID 0000.0001) %MON land_SnwH_max_N              =   1.0000000000000E+00
(PID.TID 0000.0001) %MON land_Tsrf_ave_G              =  -2.5815959216687E+00
(PID.TID 0000.0001) %MON land_Tsrf_ave_S              =  -3.3132697963695E+00
(PID.TID 0000.0001) %MON land_Tsrf_ave_T              =   2.0149199094728E+01
(PID.TID 0000.0001) %MON land_Tsrf_ave_N              =  -1.7523201785581E+01
(PID.TID 0000.0001) %MON land_Tsrf_min_S              =  -3.8985871813098E+01
(PID.TID 0000.0001) %MON land_Tsrf_min_T              =  -8.0316451094858E+00
(PID.TID 0000.0001) %MON land_Tsrf_min_N              =  -5.5018877502675E+01
(PID.TID 0000.0001) %MON land_Tsrf_max_S              =   3.3608904510445E+01
(PID.TID 0000.0001) %MON land_Tsrf_max_T              =   3.7568273139015E+01
(PID.TID 0000.0001) %MON land_Tsrf_max_N              =   1.5686208531239E+01
(PID.TID 0000.0001) %MON land_Tgr1_ave_G              =  -2.5815959216687E+00
(PID.TID 0000.0001) %MON land_Tgr1_ave_S              =  -3.3132697963695E+00
(PID.TID 0000.0001) %MON land_Tgr1_ave_T              =   2.0149199094728E+01
(PID.TID 0000.0001) %MON land_Tgr1_ave_N              =  -1.7523201785581E+01
(PID.TID 0000.0001) %MON land_Tgr1_min_S              =  -3.8985871813098E+01
(PID.TID 0000.0001) %MON land_Tgr1_min_T              =  -8.0316451094858E+00
(PID.TID 0000.0001) %MON land_Tgr1_min_N              =  -5.5018877502675E+01
(PID.TID 0000.0001) %MON land_Tgr1_max_S              =   3.3608904510445E+01
(PID.TID 0000.0001) %MON land_Tgr1_max_T              =   3.7568273139015E+01
(PID.TID 0000.0001) %MON land_Tgr1_max_N              =   1.5686208531239E+01
(PID.TID 0000.0001) %MON land_Tgr2_ave_G              =   4.2075844789702E+00
(PID.TID 0000.0001) %MON land_Tgr2_ave_S              =  -1.8731900381715E+01
(PID.TID 0000.0001) %MON land_Tgr2_ave_T              =   2.2013117275370E+01
(PID.TID 0000.0001) %MON land_Tgr2_ave_N              =  -2.4099755438272E-01
(PID.TID 0000.0001) %MON land_Tgr2_min_S              =  -6.4762296561906E+01
(PID.TID 0000.0001) %MON land_Tgr2_min_T              =  -9.7051070040243E+00
(PID.TID 0000.0001) %MON land_Tgr2_min_N              =  -4.0193619391069E+01
(PID.TID 0000.0001) %MON land_Tgr2_max_S              =   2.3360008819708E+01
(PID.TID 0000.0001) %MON land_Tgr2_max_T              =   3.1360925912704E+01
(PID.TID 0000.0001) %MON land_Tgr2_max_N              =   2.9833038898793E+01
(PID.TID 0000.0001) %MON land_TotEnerg_G              =  -6.2318014275423E+21
(PID.TID 0000.0001) %MON land_TotEnerg_S              =  -4.9893442833974E+21
(PID.TID 0000.0001) %MON land_TotEnerg_T              =   7.3640891470528E+21
(PID.TID 0000.0001) %MON land_TotEnerg_N              =  -8.6065462911976E+21
(PID.TID 0000.0001) %MON land_grdW_ave_G              =   4.8705004606900E-01
(PID.TID 0000.0001) %MON land_grdW_ave_S              =   3.0877764965169E-01
(PID.TID 0000.0001) %MON land_grdW_ave_T              =   5.6494425086260E-01
(PID.TID 0000.0001) %MON land_grdW_ave_N              =   4.9286506610416E-01
(PID.TID 0000.0001) %MON land_grdW_min_S              =   2.5944074829007E-02
(PID.TID 0000.0001) %MON land_grdW_min_T              =   0.0000000000000E+00
(PID.TID 0000.0001) %MON land_grdW_min_N              =   0.0000000000000E+00
(PID.TID 0000.0001) // =======================================================
(PID.TID 0000.0001) // End MONITOR Land statistics
(PID.TID 0000.0001) // =======================================================
(PID.TID 0000.0001) // =======================================================
(PID.TID 0000.0001) // Begin MONITOR Therm.SeaIce statistics
(PID.TID 0000.0001) // =======================================================
(PID.TID 0000.0001) %MON thSI_time_sec                =   0.0000000000000E+00
(PID.TID 0000.0001) %MON thSI_Ice_Area_G              =   0.0000000000000E+00
(PID.TID 0000.0001) %MON thSI_Ice_Area_S              =   0.0000000000000E+00
(PID.TID 0000.0001) %MON thSI_Ice_Area_N              =   0.0000000000000E+00
(PID.TID 0000.0001) %MON thSI_IceH_ave_G              =   0.0000000000000E+00
(PID.TID 0000.0001) %MON thSI_IceH_ave_S              =   0.0000000000000E+00
(PID.TID 0000.0001) %MON thSI_IceH_ave_N              =   0.0000000000000E+00
(PID.TID 0000.0001) %MON thSI_IceH_max_S              =   0.0000000000000E+00
(PID.TID 0000.0001) %MON thSI_IceH_max_N              =   0.0000000000000E+00
(PID.TID 0000.0001) %MON thSI_SnwH_ave_G              =   0.0000000000000E+00
(PID.TID 0000.0001) %MON thSI_SnwH_ave_S              =   0.0000000000000E+00
(PID.TID 0000.0001) %MON thSI_SnwH_ave_N              =   0.0000000000000E+00
(PID.TID 0000.0001) %MON thSI_SnwH_max_S              =   0.0000000000000E+00
(PID.TID 0000.0001) %MON thSI_SnwH_max_N              =   0.0000000000000E+00
(PID.TID 0000.0001) %MON thSI_Tsrf_ave_G              =   0.0000000000000E+00
(PID.TID 0000.0001) %MON thSI_Tsrf_ave_S              =   0.0000000000000E+00
(PID.TID 0000.0001) %MON thSI_Tsrf_ave_N              =   0.0000000000000E+00
(PID.TID 0000.0001) %MON thSI_Tsrf_min_S              =   0.0000000000000E+00
(PID.TID 0000.0001) %MON thSI_Tsrf_min_N              =   0.0000000000000E+00
(PID.TID 0000.0001) %MON thSI_Tsrf_max_S              =   0.0000000000000E+00
(PID.TID 0000.0001) %MON thSI_Tsrf_max_N              =   0.0000000000000E+00
(PID.TID 0000.0001) %MON thSI_Tic1_ave_G              =   0.0000000000000E+00
(PID.TID 0000.0001) %MON thSI_Tic1_ave_S              =   0.0000000000000E+00
(PID.TID 0000.0001) %MON thSI_Tic1_ave_N              =   0.0000000000000E+00
(PID.TID 0000.0001) %MON thSI_Tic1_min_S              =   0.0000000000000E+00
(PID.TID 0000.0001) %MON thSI_Tic1_min_N              =   0.0000000000000E+00
(PID.TID 0000.0001) %MON thSI_Tic1_max_S              =   0.0000000000000E+00
(PID.TID 0000.0001) %MON thSI_Tic1_max_N              =   0.0000000000000E+00
(PID.TID 0000.0001) %MON thSI_Tic2_ave_G              =   0.0000000000000E+00
(PID.TID 0000.0001) %MON thSI_Tic2_ave_S              =   0.0000000000000E+00
(PID.TID 0000.0001) %MON thSI_Tic2_ave_N              =   0.0000000000000E+00
(PID.TID 0000.0001) %MON thSI_Tic2_min_S              =   0.0000000000000E+00
(PID.TID 0000.0001) %MON thSI_Tic2_min_N              =   0.0000000000000E+00
(PID.TID 0000.0001) %MON thSI_Tic2_max_S              =   0.0000000000000E+00
(PID.TID 0000.0001) %MON thSI_Tic2_max_N              =   0.0000000000000E+00
(PID.TID 0000.0001) %MON thSI_TotEnerg_G              =  -0.0000000000000E+00
(PID.TID 0000.0001) // =======================================================
(PID.TID 0000.0001) // End MONITOR Therm.SeaIce statistics
(PID.TID 0000.0001) // =======================================================
(PID.TID 0000.0001)  MDS_READ_FIELD: opening global file: albedo_cs32.bin
(PID.TID 0000.0001)  MDS_READ_FIELD: opening global file: vegetFrc.cpl_FM.bin
(PID.TID 0000.0001)  MDS_READ_FIELD: opening global file: seaSurfT.cpl_FM.bin
(PID.TID 0000.0001)  MDS_READ_FIELD: opening global file: seaSurfT.cpl_FM.bin
(PID.TID 0000.0001)  MDS_READ_FIELD: opening global file: lndSurfT.cpl_FM.bin
(PID.TID 0000.0001)  MDS_READ_FIELD: opening global file: lndSurfT.cpl_FM.bin
(PID.TID 0000.0001)  MDS_READ_FIELD: opening global file: seaIce.cpl3FM.bin
(PID.TID 0000.0001)  MDS_READ_FIELD: opening global file: seaIce.cpl3FM.bin
(PID.TID 0000.0001)  MDS_READ_FIELD: opening global file: snowDepth.cpl_FM.bin
(PID.TID 0000.0001)  MDS_READ_FIELD: opening global file: snowDepth.cpl_FM.bin
(PID.TID 0000.0001)  MDS_READ_FIELD: opening global file: soilMoist.cpl_FM.bin
(PID.TID 0000.0001)  MDS_READ_FIELD: opening global file: soilMoist.cpl_FM.bin
(PID.TID 0000.0001)  MDS_READ_FIELD: opening global file: soilMoist.cpl_FM.bin
(PID.TID 0000.0001)  MDS_READ_FIELD: opening global file: soilMoist.cpl_FM.bin
(PID.TID 0000.0001) SOLVE_FOR_PRESSURE: putPmEinXvector =    F
 cg2d: Sum(rhs),rhsMax =   3.97903932025656E-12  4.56406615217961E+03
(PID.TID 0000.0001)      cg2d_init_res =   2.69435642942126E+04
(PID.TID 0000.0001)      cg2d_iters(min,last) =      -1      16
(PID.TID 0000.0001)      cg2d_last_res =   1.06445831620481E-10
(PID.TID 0000.0001) // =======================================================
(PID.TID 0000.0001) // Begin MONITOR dynamic field statistics
(PID.TID 0000.0001) // =======================================================
(PID.TID 0000.0001) %MON time_tsnumber                =                     1
(PID.TID 0000.0001) %MON time_secondsf                =   4.5000000000000E+02
(PID.TID 0000.0001) %MON dynstat_eta_max              =   4.9613836014184E+02
(PID.TID 0000.0001) %MON dynstat_eta_min              =  -4.3215362210608E+02
(PID.TID 0000.0001) %MON dynstat_eta_mean             =  -5.2166645138552E-17
(PID.TID 0000.0001) %MON dynstat_eta_sd               =   4.9165804759269E+01
(PID.TID 0000.0001) %MON dynstat_eta_del2             =   1.6658806044570E+00
(PID.TID 0000.0001) %MON dynstat_uvel_max             =   3.4896271935293E+00
(PID.TID 0000.0001) %MON dynstat_uvel_min             =  -2.8043477370503E+00
(PID.TID 0000.0001) %MON dynstat_uvel_mean            =  -8.6186344161884E-04
(PID.TID 0000.0001) %MON dynstat_uvel_sd              =   2.3938982710456E-01
(PID.TID 0000.0001) %MON dynstat_uvel_del2            =   2.0412223314999E-03
(PID.TID 0000.0001) %MON dynstat_vvel_max             =   3.6044902563287E+00
(PID.TID 0000.0001) %MON dynstat_vvel_min             =  -3.8832729647589E+00
(PID.TID 0000.0001) %MON dynstat_vvel_mean            =   1.0770655299200E-03
(PID.TID 0000.0001) %MON dynstat_vvel_sd              =   2.3140373950851E-01
(PID.TID 0000.0001) %MON dynstat_vvel_del2            =   2.2311611977798E-03
(PID.TID 0000.0001) %MON dynstat_wvel_max             =   4.7528267180664E-02
(PID.TID 0000.0001) %MON dynstat_wvel_min             =  -3.2491026139051E-01
(PID.TID 0000.0001) %MON dynstat_wvel_mean            =  -1.2601788696702E-03
(PID.TID 0000.0001) %MON dynstat_wvel_sd              =   1.0323039191429E-02
(PID.TID 0000.0001) %MON dynstat_wvel_del2            =   1.1875361520015E-04
(PID.TID 0000.0001) %MON dynstat_theta_max            =   4.3742421248983E+02
(PID.TID 0000.0001) %MON dynstat_theta_min            =   2.8934445016927E+02
(PID.TID 0000.0001) %MON dynstat_theta_mean           =   3.3171675847385E+02
(PID.TID 0000.0001) %MON dynstat_theta_sd             =   4.7417136096932E+01
(PID.TID 0000.0001) %MON dynstat_theta_del2           =   1.3472633067375E-04
(PID.TID 0000.0001) %MON dynstat_salt_max             =   4.8304123513646E-01
(PID.TID 0000.0001) %MON dynstat_salt_min             =  -3.6208180237463E-03
(PID.TID 0000.0001) %MON dynstat_salt_mean            =   4.0232673751468E-03
(PID.TID 0000.0001) %MON dynstat_salt_sd              =   1.7712464212163E-02
(PID.TID 0000.0001) %MON dynstat_salt_del2            =   1.0078082045432E-04
(PID.TID 0000.0001) %MON advcfl_uvel_max              =   5.0093339770585E-03
(PID.TID 0000.0001) %MON advcfl_vvel_max              =   5.5233695889847E-03
(PID.TID 0000.0001) %MON advcfl_wvel_max              =   5.3167133682084E-03
(PID.TID 0000.0001) %MON advcfl_W_hf_max              =   6.6651407574057E-03
(PID.TID 0000.0001) %MON am_eta_mean                  =  -2.6883228832650E+07
(PID.TID 0000.0001) %MON am_uZo_mean                  =  -4.3939109938419E+06
(PID.TID 0000.0001) %MON am_tot_mean                  =  -3.1277139826492E+07
(PID.TID 0000.0001) %MON pe_b_mean                    =  -1.2347200430462E-01
(PID.TID 0000.0001) %MON ke_max                       =   6.1065189290563E+00
(PID.TID 0000.0001) %MON ke_mean                      =   5.5101768014871E-02
(PID.TID 0000.0001) %MON ke_vol                       =   4.9523908919847E+19
(PID.TID 0000.0001) %MON vort_r_min                   =  -9.4580139346488E-06
(PID.TID 0000.0001) %MON vort_r_max                   =   7.4909088464658E-06
(PID.TID 0000.0001) %MON vort_a_mean                  =   6.7242814765328E-08
(PID.TID 0000.0001) %MON vort_a_sd                    =   8.3936940089773E-05
(PID.TID 0000.0001) %MON vort_p_mean                  =   6.8939448519615E-08
(PID.TID 0000.0001) %MON vort_p_sd                    =   9.1622197174781E-05
(PID.TID 0000.0001) %MON surfExpan_theta_mean         =   1.1973319814204E-01
(PID.TID 0000.0001) %MON surfExpan_salt_mean          =   8.6285471723576E-07
(PID.TID 0000.0001) %MON surfExpan_Heat_mean          =  -9.8253389511643E+00
(PID.TID 0000.0001) %MON En_Budget_T2PE_mean          =   1.8746049257042E+01
(PID.TID 0000.0001) // =======================================================
(PID.TID 0000.0001) // End MONITOR dynamic field statistics
(PID.TID 0000.0001) // =======================================================
(PID.TID 0000.0001) // =======================================================
(PID.TID 0000.0001) // Begin MONITOR Land statistics
(PID.TID 0000.0001) // =======================================================
(PID.TID 0000.0001) %MON land_time_sec                =   4.5000000000000E+02
(PID.TID 0000.0001) %MON land_SnwH_ave_G              =   1.5324899418271E-01
(PID.TID 0000.0001) %MON land_SnwH_ave_S              =   5.5906218925101E-01
(PID.TID 0000.0001) %MON land_SnwH_ave_T              =   0.0000000000000E+00
(PID.TID 0000.0001) %MON land_SnwH_ave_N              =   1.2394083770072E-01
(PID.TID 0000.0001) %MON land_SnwH_max_S              =   9.9999994790628E-01
(PID.TID 0000.0001) %MON land_SnwH_max_T              =   0.0000000000000E+00
(PID.TID 0000.0001) %MON land_SnwH_max_N              =   9.9999994052276E-01
(PID.TID 0000.0001) %MON LAND : Area= 1.460176263E+14 ; Lat sep= -24.00  24.00
(PID.TID 0000.0001) %MON LAND : LatA= 2.377676559E+13 4.894489218E+13 7.329596851E+13
(PID.TID 0000.0001) %MON land_Tsrf_ave_G              =  -4.5018097153331E+00
(PID.TID 0000.0001) %MON land_Tsrf_ave_S              =  -4.8502891206834E+00
(PID.TID 0000.0001) %MON land_Tsrf_ave_T              =   1.8967115730433E+01
(PID.TID 0000.0001) %MON land_Tsrf_ave_N              =  -2.0060623322950E+01
(PID.TID 0000.0001) %MON land_Tsrf_min_S              =  -3.4780031503666E+01
(PID.TID 0000.0001) %MON land_Tsrf_min_T              =  -7.7790761348767E+00
(PID.TID 0000.0001) %MON land_Tsrf_min_N              =  -5.2204837440254E+01
(PID.TID 0000.0001) %MON land_Tsrf_max_S              =   3.1949330087513E+01
(PID.TID 0000.0001) %MON land_Tsrf_max_T              =   3.5750083102673E+01
(PID.TID 0000.0001) %MON land_Tsrf_max_N              =   1.5372300088674E+01
(PID.TID 0000.0001) %MON land_Tgr1_ave_G              =  -3.1124927886792E+00
(PID.TID 0000.0001) %MON land_Tgr1_ave_S              =  -3.7813957895996E+00
(PID.TID 0000.0001) %MON land_Tgr1_ave_T              =   1.8967115730433E+01
(PID.TID 0000.0001) %MON land_Tgr1_ave_N              =  -1.7639617949757E+01
(PID.TID 0000.0001) %MON land_Tgr1_min_S              =  -3.8998391445355E+01
(PID.TID 0000.0001) %MON land_Tgr1_min_T              =  -7.7790761348767E+00
(PID.TID 0000.0001) %MON land_Tgr1_min_N              =  -5.5006030742765E+01
(PID.TID 0000.0001) %MON land_Tgr1_max_S              =   3.1949330087513E+01
(PID.TID 0000.0001) %MON land_Tgr1_max_T              =   3.5750083102673E+01
(PID.TID 0000.0001) %MON land_Tgr1_max_N              =   1.5372300088674E+01
(PID.TID 0000.0001) %MON land_Tgr2_ave_G              =   4.2074719607241E+00
(PID.TID 0000.0001) %MON land_Tgr2_ave_S              =  -1.8731652795813E+01
(PID.TID 0000.0001) %MON land_Tgr2_ave_T              =   2.2013064794749E+01
(PID.TID 0000.0001) %MON land_Tgr2_ave_N              =  -2.4126697958059E-01
(PID.TID 0000.0001) %MON land_Tgr2_min_S              =  -6.4761861869106E+01
(PID.TID 0000.0001) %MON land_Tgr2_min_T              =  -9.7050826670751E+00
(PID.TID 0000.0001) %MON land_Tgr2_min_N              =  -4.0193860864683E+01
(PID.TID 0000.0001) %MON land_Tgr2_max_S              =   2.3360154776443E+01
(PID.TID 0000.0001) %MON land_Tgr2_max_T              =   3.1360681955355E+01
(PID.TID 0000.0001) %MON land_Tgr2_max_N              =   2.9832408494537E+01
(PID.TID 0000.0001) %MON land_TotEnerg_G              =  -6.2449420214312E+21
(PID.TID 0000.0001) %MON land_TotEnerg_S              =  -4.9909809342333E+21
(PID.TID 0000.0001) %MON land_TotEnerg_T              =   7.3535863970854E+21
(PID.TID 0000.0001) %MON land_TotEnerg_N              =  -8.6075474842833E+21
(PID.TID 0000.0001) %MON land_grdW_ave_G              =   4.8703721222978E-01
(PID.TID 0000.0001) %MON land_grdW_ave_S              =   3.0876199363048E-01
(PID.TID 0000.0001) %MON land_grdW_ave_T              =   5.6488813559401E-01
(PID.TID 0000.0001) %MON land_grdW_ave_N              =   4.9288204982923E-01
(PID.TID 0000.0001) %MON land_grdW_min_S              =   2.5934444940682E-02
(PID.TID 0000.0001) %MON land_grdW_min_T              =   0.0000000000000E+00
(PID.TID 0000.0001) %MON land_grdW_min_N              =   0.0000000000000E+00
(PID.TID 0000.0001) // =======================================================
(PID.TID 0000.0001) // End MONITOR Land statistics
(PID.TID 0000.0001) // =======================================================
(PID.TID 0000.0001) // =======================================================
(PID.TID 0000.0001) // Begin MONITOR Therm.SeaIce statistics
(PID.TID 0000.0001) // =======================================================
(PID.TID 0000.0001) %MON thSI_time_sec                =   4.5000000000000E+02
(PID.TID 0000.0001) %MON thSI_Ice_Area_G              =   1.6321362239017E+10
(PID.TID 0000.0001) %MON thSI_Ice_Area_S              =   0.0000000000000E+00
(PID.TID 0000.0001) %MON thSI_Ice_Area_N              =   1.6321362239017E+10
(PID.TID 0000.0001) %MON thSI_IceH_ave_G              =   9.0201168668972E-02
(PID.TID 0000.0001) %MON thSI_IceH_ave_S              =   0.0000000000000E+00
(PID.TID 0000.0001) %MON thSI_IceH_ave_N              =   9.0201168668972E-02
(PID.TID 0000.0001) %MON thSI_IceH_max_S              =   0.0000000000000E+00
(PID.TID 0000.0001) %MON thSI_IceH_max_N              =   1.0000000000000E-01
(PID.TID 0000.0001) %MON thSI_SnwH_ave_G              =   0.0000000000000E+00
(PID.TID 0000.0001) %MON thSI_SnwH_ave_S              =   0.0000000000000E+00
(PID.TID 0000.0001) %MON thSI_SnwH_ave_N              =   0.0000000000000E+00
(PID.TID 0000.0001) %MON thSI_SnwH_max_S              =   0.0000000000000E+00
(PID.TID 0000.0001) %MON thSI_SnwH_max_N              =   0.0000000000000E+00
(PID.TID 0000.0001) %MON thSI_Tsrf_ave_G              =  -1.6672207727980E+00
(PID.TID 0000.0001) %MON thSI_Tsrf_ave_S              =   0.0000000000000E+00
(PID.TID 0000.0001) %MON thSI_Tsrf_ave_N              =  -1.6672207727980E+00
(PID.TID 0000.0001) %MON thSI_Tsrf_min_S              =   0.0000000000000E+00
(PID.TID 0000.0001) %MON thSI_Tsrf_min_N              =  -1.7019828369658E+00
(PID.TID 0000.0001) %MON thSI_Tsrf_max_S              =   0.0000000000000E+00
(PID.TID 0000.0001) %MON thSI_Tsrf_max_N              =  -1.6162307215484E+00
(PID.TID 0000.0001) %MON thSI_Tic1_ave_G              =  -1.6654148959328E+00
(PID.TID 0000.0001) %MON thSI_Tic1_ave_S              =   0.0000000000000E+00
(PID.TID 0000.0001) %MON thSI_Tic1_ave_N              =  -1.6654148959328E+00
(PID.TID 0000.0001) %MON thSI_Tic1_min_S              =   0.0000000000000E+00
(PID.TID 0000.0001) %MON thSI_Tic1_min_N              =  -1.7019828369658E+00
(PID.TID 0000.0001) %MON thSI_Tic1_max_S              =   0.0000000000000E+00
(PID.TID 0000.0001) %MON thSI_Tic1_max_N              =  -1.6162307215484E+00
(PID.TID 0000.0001) %MON thSI_Tic2_ave_G              =  -1.6654148959328E+00
(PID.TID 0000.0001) %MON thSI_Tic2_ave_S              =   0.0000000000000E+00
(PID.TID 0000.0001) %MON thSI_Tic2_ave_N              =  -1.6654148959328E+00
(PID.TID 0000.0001) %MON thSI_Tic2_min_S              =   0.0000000000000E+00
(PID.TID 0000.0001) %MON thSI_Tic2_min_N              =  -1.7019828369658E+00
(PID.TID 0000.0001) %MON thSI_Tic2_max_S              =   0.0000000000000E+00
(PID.TID 0000.0001) %MON thSI_Tic2_max_N              =  -1.6162307215484E+00
(PID.TID 0000.0001) %MON thSI_TotEnerg_G              =  -4.4008237021629E+17
(PID.TID 0000.0001) // =======================================================
(PID.TID 0000.0001) // End MONITOR Therm.SeaIce statistics
(PID.TID 0000.0001) // =======================================================
 cg2d: Sum(rhs),rhsMax =   8.18545231595635E-12  9.58190656975376E+03
(PID.TID 0000.0001)      cg2d_init_res =   3.46575877432020E+04
(PID.TID 0000.0001)      cg2d_iters(min,last) =      -1      17
(PID.TID 0000.0001)      cg2d_last_res =   1.39053130802352E-11
(PID.TID 0000.0001) // =======================================================
(PID.TID 0000.0001) // Begin MONITOR dynamic field statistics
(PID.TID 0000.0001) // =======================================================
(PID.TID 0000.0001) %MON time_tsnumber                =                     2
(PID.TID 0000.0001) %MON time_secondsf                =   9.0000000000000E+02
(PID.TID 0000.0001) %MON dynstat_eta_max              =   1.0854530063885E+03
(PID.TID 0000.0001) %MON dynstat_eta_min              =  -1.0761431835828E+03
(PID.TID 0000.0001) %MON dynstat_eta_mean             =  -1.7305205891074E-15
(PID.TID 0000.0001) %MON dynstat_eta_sd               =   1.1832751945691E+02
(PID.TID 0000.0001) %MON dynstat_eta_del2             =   3.5861449678027E+00
(PID.TID 0000.0001) %MON dynstat_uvel_max             =   5.5537143674964E+00
(PID.TID 0000.0001) %MON dynstat_uvel_min             =  -4.8930294868134E+00
(PID.TID 0000.0001) %MON dynstat_uvel_mean            =  -1.7289657971393E-03
(PID.TID 0000.0001) %MON dynstat_uvel_sd              =   4.1497506726654E-01
(PID.TID 0000.0001) %MON dynstat_uvel_del2            =   2.6513869275720E-03
(PID.TID 0000.0001) %MON dynstat_vvel_max             =   5.9066645920785E+00
(PID.TID 0000.0001) %MON dynstat_vvel_min             =  -6.6447573745385E+00
(PID.TID 0000.0001) %MON dynstat_vvel_mean            =   2.2401401828400E-03
(PID.TID 0000.0001) %MON dynstat_vvel_sd              =   3.9230675914393E-01
(PID.TID 0000.0001) %MON dynstat_vvel_del2            =   2.9149714559519E-03
(PID.TID 0000.0001) %MON dynstat_wvel_max             =   6.4854473550473E-02
(PID.TID 0000.0001) %MON dynstat_wvel_min             =  -5.1936811917749E-01
(PID.TID 0000.0001) %MON dynstat_wvel_mean            =  -2.0761866210411E-03
(PID.TID 0000.0001) %MON dynstat_wvel_sd              =   1.6604474473701E-02
(PID.TID 0000.0001) %MON dynstat_wvel_del2            =   1.8054880713009E-04
(PID.TID 0000.0001) %MON dynstat_theta_max            =   4.3746516123689E+02
(PID.TID 0000.0001) %MON dynstat_theta_min            =   2.8908978567183E+02
(PID.TID 0000.0001) %MON dynstat_theta_mean           =   3.3171699067936E+02
(PID.TID 0000.0001) %MON dynstat_theta_sd             =   4.7416620545846E+01
(PID.TID 0000.0001) %MON dynstat_theta_del2           =   2.6867796510729E-04
(PID.TID 0000.0001) %MON dynstat_salt_max             =   9.1940617762414E-01
(PID.TID 0000.0001) %MON dynstat_salt_min             =  -2.9668775394416E-03
(PID.TID 0000.0001) %MON dynstat_salt_mean            =   7.9885140209895E-03
(PID.TID 0000.0001) %MON dynstat_salt_sd              =   3.4946308187957E-02
(PID.TID 0000.0001) %MON dynstat_salt_del2            =   1.9124415292379E-04
(PID.TID 0000.0001) %MON advcfl_uvel_max              =   7.9723158197425E-03
(PID.TID 0000.0001) %MON advcfl_vvel_max              =   9.4511642992335E-03
(PID.TID 0000.0001) %MON advcfl_wvel_max              =   8.4987510410863E-03
(PID.TID 0000.0001) %MON advcfl_W_hf_max              =   1.0604421465649E-02
(PID.TID 0000.0001) %MON am_eta_mean                  =  -9.9204625967319E+07
(PID.TID 0000.0001) %MON am_uZo_mean                  =   6.4539347232837E+07
(PID.TID 0000.0001) %MON am_tot_mean                  =  -3.4665278734482E+07
(PID.TID 0000.0001) %MON pe_b_mean                    =  -2.8688065336689E-01
(PID.TID 0000.0001) %MON ke_max                       =   1.6262417582956E+01
(PID.TID 0000.0001) %MON ke_mean                      =   1.6209734814517E-01
(PID.TID 0000.0001) %MON ke_vol                       =   4.9523908919847E+19
(PID.TID 0000.0001) %MON vort_r_min                   =  -1.6396700176921E-05
(PID.TID 0000.0001) %MON vort_r_max                   =   1.1040793083801E-05
(PID.TID 0000.0001) %MON vort_a_mean                  =   6.7242814765279E-08
(PID.TID 0000.0001) %MON vort_a_sd                    =   8.3937544537508E-05
(PID.TID 0000.0001) %MON vort_p_mean                  =   6.8939448374183E-08
(PID.TID 0000.0001) %MON vort_p_sd                    =   9.1637366203279E-05
(PID.TID 0000.0001) %MON surfExpan_theta_mean         =   1.9854966425730E-01
(PID.TID 0000.0001) %MON surfExpan_salt_mean          =   1.7561877986984E-06
(PID.TID 0000.0001) %MON surfExpan_Heat_mean          =  -1.6223232167059E+01
(PID.TID 0000.0001) %MON En_Budget_T2PE_mean          =   3.0989361699019E+01
(PID.TID 0000.0001) // =======================================================
(PID.TID 0000.0001) // End MONITOR dynamic field statistics
(PID.TID 0000.0001) // =======================================================
(PID.TID 0000.0001) // =======================================================
(PID.TID 0000.0001) // Begin MONITOR Land statistics
(PID.TID 0000.0001) // =======================================================
(PID.TID 0000.0001) %MON land_time_sec                =   9.0000000000000E+02
(PID.TID 0000.0001) %MON land_SnwH_ave_G              =   1.5324757260637E-01
(PID.TID 0000.0001) %MON land_SnwH_ave_S              =   5.5906150850085E-01
(PID.TID 0000.0001) %MON land_SnwH_ave_T              =   0.0000000000000E+00
(PID.TID 0000.0001) %MON land_SnwH_ave_N              =   1.2393822651802E-01
(PID.TID 0000.0001) %MON land_SnwH_max_S              =   9.9999903281816E-01
(PID.TID 0000.0001) %MON land_SnwH_max_T              =   0.0000000000000E+00
(PID.TID 0000.0001) %MON land_SnwH_max_N              =   9.9999987511301E-01
(PID.TID 0000.0001) %MON land_Tsrf_ave_G              =  -5.0690124600984E+00
(PID.TID 0000.0001) %MON land_Tsrf_ave_S              =  -5.5150296588046E+00
(PID.TID 0000.0001) %MON land_Tsrf_ave_T              =   1.7949846944203E+01
(PID.TID 0000.0001) %MON land_Tsrf_ave_N              =  -2.0295644535583E+01
(PID.TID 0000.0001) %MON land_Tsrf_min_S              =  -3.4805710679856E+01
(PID.TID 0000.0001) %MON land_Tsrf_min_T              =  -7.5293906517603E+00
(PID.TID 0000.0001) %MON land_Tsrf_min_N              =  -5.1953831528119E+01
(PID.TID 0000.0001) %MON land_Tsrf_max_S              =   3.0527727978694E+01
(PID.TID 0000.0001) %MON land_Tsrf_max_T              =   3.4125132802173E+01
(PID.TID 0000.0001) %MON land_Tsrf_max_N              =   1.4715427212933E+01
(PID.TID 0000.0001) %MON land_Tgr1_ave_G              =  -3.5647694091439E+00
(PID.TID 0000.0001) %MON land_Tgr1_ave_S              =  -4.1877932696364E+00
(PID.TID 0000.0001) %MON land_Tgr1_ave_T              =   1.7949846944203E+01
(PID.TID 0000.0001) %MON land_Tgr1_ave_N              =  -1.7729492331668E+01
(PID.TID 0000.0001) %MON land_Tgr1_min_S              =  -3.9010930086368E+01
(PID.TID 0000.0001) %MON land_Tgr1_min_T              =  -7.5293906517603E+00
(PID.TID 0000.0001) %MON land_Tgr1_min_N              =  -5.4992960798996E+01
(PID.TID 0000.0001) %MON land_Tgr1_max_S              =   3.0527727978694E+01
(PID.TID 0000.0001) %MON land_Tgr1_max_T              =   3.4125132802173E+01
(PID.TID 0000.0001) %MON land_Tgr1_max_N              =   1.4715427212933E+01
(PID.TID 0000.0001) %MON land_Tgr2_ave_G              =   4.2073557622614E+00
(PID.TID 0000.0001) %MON land_Tgr2_ave_S              =  -1.8731411666385E+01
(PID.TID 0000.0001) %MON land_Tgr2_ave_T              =   2.2012996603944E+01
(PID.TID 0000.0001) %MON land_Tgr2_ave_N              =  -2.4153115113584E-01
(PID.TID 0000.0001) %MON land_Tgr2_min_S              =  -6.4761427410112E+01
(PID.TID 0000.0001) %MON land_Tgr2_min_T              =  -9.7050551760741E+00
(PID.TID 0000.0001) %MON land_Tgr2_min_N              =  -4.0194102086178E+01
(PID.TID 0000.0001) %MON land_Tgr2_max_S              =   2.3360276086231E+01
(PID.TID 0000.0001) %MON land_Tgr2_max_T              =   3.1360419809243E+01
(PID.TID 0000.0001) %MON land_Tgr2_max_N              =   2.9832066090495E+01
(PID.TID 0000.0001) %MON land_TotEnerg_G              =  -6.2564635149901E+21
(PID.TID 0000.0001) %MON land_TotEnerg_S              =  -4.9923904027760E+21
(PID.TID 0000.0001) %MON land_TotEnerg_T              =   7.3445997194458E+21
(PID.TID 0000.0001) %MON land_TotEnerg_N              =  -8.6086728316599E+21
(PID.TID 0000.0001) %MON land_grdW_ave_G              =   4.8701737330328E-01
(PID.TID 0000.0001) %MON land_grdW_ave_S              =   3.0874743069780E-01
(PID.TID 0000.0001) %MON land_grdW_ave_T              =   5.6483651159080E-01
(PID.TID 0000.0001) %MON land_grdW_ave_N              =   4.9288172454191E-01
(PID.TID 0000.0001) %MON land_grdW_min_S              =   2.5938834960516E-02
(PID.TID 0000.0001) %MON land_grdW_min_T              =   0.0000000000000E+00
(PID.TID 0000.0001) %MON land_grdW_min_N              =   0.0000000000000E+00
(PID.TID 0000.0001) // =======================================================
(PID.TID 0000.0001) // End MONITOR Land statistics
(PID.TID 0000.0001) // =======================================================
(PID.TID 0000.0001) // =======================================================
(PID.TID 0000.0001) // Begin MONITOR Therm.SeaIce statistics
(PID.TID 0000.0001) // =======================================================
(PID.TID 0000.0001) %MON thSI_time_sec                =   9.0000000000000E+02
(PID.TID 0000.0001) %MON thSI_Ice_Area_G              =   3.1862062077773E+10
(PID.TID 0000.0001) %MON thSI_Ice_Area_S              =   0.0000000000000E+00
(PID.TID 0000.0001) %MON thSI_Ice_Area_N              =   3.1862062077773E+10
(PID.TID 0000.0001) %MON thSI_IceH_ave_G              =   9.2253074660587E-02
(PID.TID 0000.0001) %MON thSI_IceH_ave_S              =   0.0000000000000E+00
(PID.TID 0000.0001) %MON thSI_IceH_ave_N              =   9.2253074660587E-02
(PID.TID 0000.0001) %MON thSI_IceH_max_S              =   0.0000000000000E+00
(PID.TID 0000.0001) %MON thSI_IceH_max_N              =   1.0298625641680E-01
(PID.TID 0000.0001) %MON thSI_SnwH_ave_G              =   0.0000000000000E+00
(PID.TID 0000.0001) %MON thSI_SnwH_ave_S              =   0.0000000000000E+00
(PID.TID 0000.0001) %MON thSI_SnwH_ave_N              =   0.0000000000000E+00
(PID.TID 0000.0001) %MON thSI_SnwH_max_S              =   0.0000000000000E+00
(PID.TID 0000.0001) %MON thSI_SnwH_max_N              =   0.0000000000000E+00
(PID.TID 0000.0001) %MON thSI_Tsrf_ave_G              =  -4.1045730601515E+00
(PID.TID 0000.0001) %MON thSI_Tsrf_ave_S              =   0.0000000000000E+00
(PID.TID 0000.0001) %MON thSI_Tsrf_ave_N              =  -4.1045730601515E+00
(PID.TID 0000.0001) %MON thSI_Tsrf_min_S              =   0.0000000000000E+00
(PID.TID 0000.0001) %MON thSI_Tsrf_min_N              =  -4.3145066827776E+00
(PID.TID 0000.0001) %MON thSI_Tsrf_max_S              =   0.0000000000000E+00
(PID.TID 0000.0001) %MON thSI_Tsrf_max_N              =  -2.7988075296061E+00
(PID.TID 0000.0001) %MON thSI_Tic1_ave_G              =  -1.9164540106699E+00
(PID.TID 0000.0001) %MON thSI_Tic1_ave_S              =   0.0000000000000E+00
(PID.TID 0000.0001) %MON thSI_Tic1_ave_N              =  -1.9164540106699E+00
(PID.TID 0000.0001) %MON thSI_Tic1_min_S              =   0.0000000000000E+00
(PID.TID 0000.0001) %MON thSI_Tic1_min_N              =  -2.4124421867146E+00
(PID.TID 0000.0001) %MON thSI_Tic1_max_S              =   0.0000000000000E+00
(PID.TID 0000.0001) %MON thSI_Tic1_max_N              =  -1.8428525014752E+00
(PID.TID 0000.0001) %MON thSI_Tic2_ave_G              =  -1.7000746215017E+00
(PID.TID 0000.0001) %MON thSI_Tic2_ave_S              =   0.0000000000000E+00
(PID.TID 0000.0001) %MON thSI_Tic2_ave_N              =  -1.7000746215017E+00
(PID.TID 0000.0001) %MON thSI_Tic2_min_S              =   0.0000000000000E+00
(PID.TID 0000.0001) %MON thSI_Tic2_min_N              =  -1.9182304292658E+00
(PID.TID 0000.0001) %MON thSI_Tic2_max_S              =   0.0000000000000E+00
(PID.TID 0000.0001) %MON thSI_Tic2_max_N              =  -1.6439107584468E+00
(PID.TID 0000.0001) %MON thSI_TotEnerg_G              =  -8.8157848580510E+17
(PID.TID 0000.0001) // =======================================================
(PID.TID 0000.0001) // End MONITOR Therm.SeaIce statistics
(PID.TID 0000.0001) // =======================================================
 cg2d: Sum(rhs),rhsMax =   6.40056896372698E-11  1.30314570532154E+04
(PID.TID 0000.0001)      cg2d_init_res =   3.21740950962225E+04
(PID.TID 0000.0001)      cg2d_iters(min,last) =      -1      17
(PID.TID 0000.0001)      cg2d_last_res =   1.32109150807989E-11
(PID.TID 0000.0001) // =======================================================
(PID.TID 0000.0001) // Begin MONITOR dynamic field statistics
(PID.TID 0000.0001) // =======================================================
(PID.TID 0000.0001) %MON time_tsnumber                =                     3
(PID.TID 0000.0001) %MON time_secondsf                =   1.3500000000000E+03
(PID.TID 0000.0001) %MON dynstat_eta_max              =   1.7334944859354E+03
(PID.TID 0000.0001) %MON dynstat_eta_min              =  -1.7704111387081E+03
(PID.TID 0000.0001) %MON dynstat_eta_mean             =  -2.0082197226269E-15
(PID.TID 0000.0001) %MON dynstat_eta_sd               =   1.8804581669897E+02
(PID.TID 0000.0001) %MON dynstat_eta_del2             =   4.9928710527222E+00
(PID.TID 0000.0001) %MON dynstat_uvel_max             =   6.2742258912321E+00
(PID.TID 0000.0001) %MON dynstat_uvel_min             =  -6.2729601601008E+00
(PID.TID 0000.0001) %MON dynstat_uvel_mean            =  -2.5952653815331E-03
(PID.TID 0000.0001) %MON dynstat_uvel_sd              =   5.3881647733450E-01
(PID.TID 0000.0001) %MON dynstat_uvel_del2            =   2.4166452385169E-03
(PID.TID 0000.0001) %MON dynstat_vvel_max             =   7.0879660957809E+00
(PID.TID 0000.0001) %MON dynstat_vvel_min             =  -8.1834510891355E+00
(PID.TID 0000.0001) %MON dynstat_vvel_mean            =   3.4242269518594E-03
(PID.TID 0000.0001) %MON dynstat_vvel_sd              =   5.0070494684492E-01
(PID.TID 0000.0001) %MON dynstat_vvel_del2            =   2.6249409845591E-03
(PID.TID 0000.0001) %MON dynstat_wvel_max             =   5.9150657338382E-02
(PID.TID 0000.0001) %MON dynstat_wvel_min             =  -6.0021971870206E-01
(PID.TID 0000.0001) %MON dynstat_wvel_mean            =  -2.4821155992797E-03
(PID.TID 0000.0001) %MON dynstat_wvel_sd              =   1.9343842638626E-02
(PID.TID 0000.0001) %MON dynstat_wvel_del2            =   1.9690506524777E-04
(PID.TID 0000.0001) %MON dynstat_theta_max            =   4.3749838068383E+02
(PID.TID 0000.0001) %MON dynstat_theta_min            =   2.8883929005127E+02
(PID.TID 0000.0001) %MON dynstat_theta_mean           =   3.3171691128913E+02
(PID.TID 0000.0001) %MON dynstat_theta_sd             =   4.7416691201055E+01
(PID.TID 0000.0001) %MON dynstat_theta_del2           =   3.8368109758028E-04
(PID.TID 0000.0001) %MON dynstat_salt_max             =   1.2936347091691E+00
(PID.TID 0000.0001) %MON dynstat_salt_min             =  -2.2871664885974E-03
(PID.TID 0000.0001) %MON dynstat_salt_mean            =   1.1898733176013E-02
(PID.TID 0000.0001) %MON dynstat_salt_sd              =   5.1787409879945E-02
(PID.TID 0000.0001) %MON dynstat_salt_del2            =   2.7304936460085E-04
(PID.TID 0000.0001) %MON advcfl_uvel_max              =   9.0066047728445E-03
(PID.TID 0000.0001) %MON advcfl_vvel_max              =   1.1639723833187E-02
(PID.TID 0000.0001) %MON advcfl_wvel_max              =   9.8217772151247E-03
(PID.TID 0000.0001) %MON advcfl_W_hf_max              =   1.2252638961414E-02
(PID.TID 0000.0001) %MON am_eta_mean                  =  -2.1767577851152E+08
(PID.TID 0000.0001) %MON am_uZo_mean                  =   1.8153203030448E+08
(PID.TID 0000.0001) %MON am_tot_mean                  =  -3.6143748207039E+07
(PID.TID 0000.0001) %MON pe_b_mean                    =  -4.4129086272348E-01
(PID.TID 0000.0001) %MON ke_max                       =   2.3381166972357E+01
(PID.TID 0000.0001) %MON ke_mean                      =   2.6892907045980E-01
(PID.TID 0000.0001) %MON ke_vol                       =   4.9523908919847E+19
(PID.TID 0000.0001) %MON vort_r_min                   =  -2.0712276896305E-05
(PID.TID 0000.0001) %MON vort_r_max                   =   1.2472288565421E-05
(PID.TID 0000.0001) %MON vort_a_mean                  =   6.7242814765393E-08
(PID.TID 0000.0001) %MON vort_a_sd                    =   8.3938496596505E-05
(PID.TID 0000.0001) %MON vort_p_mean                  =   6.8939448483436E-08
(PID.TID 0000.0001) %MON vort_p_sd                    =   9.1660063466369E-05
(PID.TID 0000.0001) %MON surfExpan_theta_mean         =   2.3866334759161E-01
(PID.TID 0000.0001) %MON surfExpan_salt_mean          =   1.6371707045166E-07
(PID.TID 0000.0001) %MON surfExpan_Heat_mean          =  -1.9473865648810E+01
(PID.TID 0000.0001) %MON En_Budget_T2PE_mean          =   3.7189309098005E+01
(PID.TID 0000.0001) // =======================================================
(PID.TID 0000.0001) // End MONITOR dynamic field statistics
(PID.TID 0000.0001) // =======================================================
(PID.TID 0000.0001) // =======================================================
(PID.TID 0000.0001) // Begin MONITOR Land statistics
(PID.TID 0000.0001) // =======================================================
(PID.TID 0000.0001) %MON land_time_sec                =   1.3500000000000E+03
(PID.TID 0000.0001) %MON land_SnwH_ave_G              =   1.5324622462386E-01
(PID.TID 0000.0001) %MON land_SnwH_ave_S              =   5.5906076423872E-01
(PID.TID 0000.0001) %MON land_SnwH_ave_T              =   0.0000000000000E+00
(PID.TID 0000.0001) %MON land_SnwH_ave_N              =   1.2393578254922E-01
(PID.TID 0000.0001) %MON land_SnwH_max_S              =   9.9999852996974E-01
(PID.TID 0000.0001) %MON land_SnwH_max_T              =   0.0000000000000E+00
(PID.TID 0000.0001) %MON land_SnwH_max_N              =   9.9999980258466E-01
(PID.TID 0000.0001) %MON land_Tsrf_ave_G              =  -5.4168955726854E+00
(PID.TID 0000.0001) %MON land_Tsrf_ave_S              =  -5.7004271204352E+00
(PID.TID 0000.0001) %MON land_Tsrf_ave_T              =   1.7063878004637E+01
(PID.TID 0000.0001) %MON land_Tsrf_ave_N              =  -2.0336919112877E+01
(PID.TID 0000.0001) %MON land_Tsrf_min_S              =  -3.4749393939224E+01
(PID.TID 0000.0001) %MON land_Tsrf_min_T              =  -7.2825450669061E+00
(PID.TID 0000.0001) %MON land_Tsrf_min_N              =  -5.1354851226571E+01
(PID.TID 0000.0001) %MON land_Tsrf_max_S              =   2.9349190910484E+01
(PID.TID 0000.0001) %MON land_Tsrf_max_T              =   3.2668731033163E+01
(PID.TID 0000.0001) %MON land_Tsrf_max_N              =   1.4115294052095E+01
(PID.TID 0000.0001) %MON land_Tgr1_ave_G              =  -3.9618925558395E+00
(PID.TID 0000.0001) %MON land_Tgr1_ave_S              =  -4.5432170197788E+00
(PID.TID 0000.0001) %MON land_Tgr1_ave_T              =   1.7063878004637E+01
(PID.TID 0000.0001) %MON land_Tgr1_ave_N              =  -1.7813705664756E+01
(PID.TID 0000.0001) %MON land_Tgr1_min_S              =  -3.9023380638625E+01
(PID.TID 0000.0001) %MON land_Tgr1_min_T              =  -7.2825450669061E+00
(PID.TID 0000.0001) %MON land_Tgr1_min_N              =  -5.4979329216233E+01
(PID.TID 0000.0001) %MON land_Tgr1_max_S              =   2.9349190910484E+01
(PID.TID 0000.0001) %MON land_Tgr1_max_T              =   3.2668731033163E+01
(PID.TID 0000.0001) %MON land_Tgr1_max_N              =   1.4115294052095E+01
(PID.TID 0000.0001) %MON land_Tgr2_ave_G              =   4.2072329530006E+00
(PID.TID 0000.0001) %MON land_Tgr2_ave_S              =  -1.8731176189431E+01
(PID.TID 0000.0001) %MON land_Tgr2_ave_T              =   2.2012913789390E+01
(PID.TID 0000.0001) %MON land_Tgr2_ave_N              =  -2.4179689355062E-01
(PID.TID 0000.0001) %MON land_Tgr2_min_S              =  -6.4760993183629E+01
(PID.TID 0000.0001) %MON land_Tgr2_min_T              =  -9.7050245669490E+00
(PID.TID 0000.0001) %MON land_Tgr2_min_N              =  -4.0194343043116E+01
(PID.TID 0000.0001) %MON land_Tgr2_max_S              =   2.3360375749462E+01
(PID.TID 0000.0001) %MON land_Tgr2_max_T              =   3.1360141009425E+01
(PID.TID 0000.0001) %MON land_Tgr2_max_N              =   2.9831710364210E+01
(PID.TID 0000.0001) %MON land_TotEnerg_G              =  -6.2665607235381E+21
(PID.TID 0000.0001) %MON land_TotEnerg_S              =  -4.9936150991706E+21
(PID.TID 0000.0001) %MON land_TotEnerg_T              =   7.3368049210519E+21
(PID.TID 0000.0001) %MON land_TotEnerg_N              =  -8.6097505454194E+21
(PID.TID 0000.0001) %MON land_grdW_ave_G              =   4.8699898904671E-01
(PID.TID 0000.0001) %MON land_grdW_ave_S              =   3.0873376571813E-01
(PID.TID 0000.0001) %MON land_grdW_ave_T              =   5.6478878875540E-01
(PID.TID 0000.0001) %MON land_grdW_ave_N              =   4.9288140082079E-01
(PID.TID 0000.0001) %MON land_grdW_min_S              =   2.5955183693758E-02
(PID.TID 0000.0001) %MON land_grdW_min_T              =   0.0000000000000E+00
(PID.TID 0000.0001) %MON land_grdW_min_N              =   0.0000000000000E+00
(PID.TID 0000.0001) // =======================================================
(PID.TID 0000.0001) // End MONITOR Land statistics
(PID.TID 0000.0001) // =======================================================
(PID.TID 0000.0001) // =======================================================
(PID.TID 0000.0001) // Begin MONITOR Therm.SeaIce statistics
(PID.TID 0000.0001) // =======================================================
(PID.TID 0000.0001) %MON thSI_time_sec                =   1.3500000000000E+03
(PID.TID 0000.0001) %MON thSI_Ice_Area_G              =   4.6686863866502E+10
(PID.TID 0000.0001) %MON thSI_Ice_Area_S              =   0.0000000000000E+00
(PID.TID 0000.0001) %MON thSI_Ice_Area_N              =   4.6686863866502E+10
(PID.TID 0000.0001) %MON thSI_IceH_ave_G              =   9.4303670060590E-02
(PID.TID 0000.0001) %MON thSI_IceH_ave_S              =   0.0000000000000E+00
(PID.TID 0000.0001) %MON thSI_IceH_ave_N              =   9.4303670060590E-02
(PID.TID 0000.0001) %MON thSI_IceH_max_S              =   0.0000000000000E+00
(PID.TID 0000.0001) %MON thSI_IceH_max_N              =   1.0595980640480E-01
(PID.TID 0000.0001) %MON thSI_SnwH_ave_G              =   0.0000000000000E+00
(PID.TID 0000.0001) %MON thSI_SnwH_ave_S              =   0.0000000000000E+00
(PID.TID 0000.0001) %MON thSI_SnwH_ave_N              =   0.0000000000000E+00
(PID.TID 0000.0001) %MON thSI_SnwH_max_S              =   0.0000000000000E+00
(PID.TID 0000.0001) %MON thSI_SnwH_max_N              =   0.0000000000000E+00
(PID.TID 0000.0001) %MON thSI_Tsrf_ave_G              =  -4.4316115585534E+00
(PID.TID 0000.0001) %MON thSI_Tsrf_ave_S              =   0.0000000000000E+00
(PID.TID 0000.0001) %MON thSI_Tsrf_ave_N              =  -4.4316115585534E+00
(PID.TID 0000.0001) %MON thSI_Tsrf_min_S              =   0.0000000000000E+00
(PID.TID 0000.0001) %MON thSI_Tsrf_min_N              =  -4.6311725880577E+00
(PID.TID 0000.0001) %MON thSI_Tsrf_max_S              =   0.0000000000000E+00
(PID.TID 0000.0001) %MON thSI_Tsrf_max_N              =  -3.1059928158077E+00
(PID.TID 0000.0001) %MON thSI_Tic1_ave_G              =  -2.2165450900323E+00
(PID.TID 0000.0001) %MON thSI_Tic1_ave_S              =   0.0000000000000E+00
(PID.TID 0000.0001) %MON thSI_Tic1_ave_N              =  -2.2165450900323E+00
(PID.TID 0000.0001) %MON thSI_Tic1_min_S              =   0.0000000000000E+00
(PID.TID 0000.0001) %MON thSI_Tic1_min_N              =  -2.9276701366237E+00
(PID.TID 0000.0001) %MON thSI_Tic1_max_S              =   0.0000000000000E+00
(PID.TID 0000.0001) %MON thSI_Tic1_max_N              =  -2.1245983632372E+00
(PID.TID 0000.0001) %MON thSI_Tic2_ave_G              =  -1.7555290628726E+00
(PID.TID 0000.0001) %MON thSI_Tic2_ave_S              =   0.0000000000000E+00
(PID.TID 0000.0001) %MON thSI_Tic2_ave_N              =  -1.7555290628726E+00
(PID.TID 0000.0001) %MON thSI_Tic2_min_S              =   0.0000000000000E+00
(PID.TID 0000.0001) %MON thSI_Tic2_min_N              =  -2.0618834140770E+00
(PID.TID 0000.0001) %MON thSI_Tic2_max_S              =   0.0000000000000E+00
(PID.TID 0000.0001) %MON thSI_Tic2_max_N              =  -1.6936955403739E+00
(PID.TID 0000.0001) %MON thSI_TotEnerg_G              =  -1.3243748096761E+18
(PID.TID 0000.0001) // =======================================================
(PID.TID 0000.0001) // End MONITOR Therm.SeaIce statistics
(PID.TID 0000.0001) // =======================================================
 cg2d: Sum(rhs),rhsMax =   1.81898940354586E-11  1.49260506111246E+04
(PID.TID 0000.0001)      cg2d_init_res =   2.74463412504928E+04
(PID.TID 0000.0001)      cg2d_iters(min,last) =      -1      16
(PID.TID 0000.0001)      cg2d_last_res =   1.12145968338908E-10
(PID.TID 0000.0001) // =======================================================
(PID.TID 0000.0001) // Begin MONITOR dynamic field statistics
(PID.TID 0000.0001) // =======================================================
(PID.TID 0000.0001) %MON time_tsnumber                =                     4
(PID.TID 0000.0001) %MON time_secondsf                =   1.8000000000000E+03
(PID.TID 0000.0001) %MON dynstat_eta_max              =   2.5072717937291E+03
(PID.TID 0000.0001) %MON dynstat_eta_min              =  -2.3449019499878E+03
(PID.TID 0000.0001) %MON dynstat_eta_mean             =   1.5689216583023E-16
(PID.TID 0000.0001) %MON dynstat_eta_sd               =   2.4940528976650E+02
(PID.TID 0000.0001) %MON dynstat_eta_del2             =   5.6892272259329E+00
(PID.TID 0000.0001) %MON dynstat_uvel_max             =   7.1212410560812E+00
(PID.TID 0000.0001) %MON dynstat_uvel_min             =  -7.0685353339393E+00
(PID.TID 0000.0001) %MON dynstat_uvel_mean            =  -3.4318935849152E-03
(PID.TID 0000.0001) %MON dynstat_uvel_sd              =   6.2651662165580E-01
(PID.TID 0000.0001) %MON dynstat_uvel_del2            =   1.9308689380912E-03
(PID.TID 0000.0001) %MON dynstat_vvel_max             =   7.5141985527981E+00
(PID.TID 0000.0001) %MON dynstat_vvel_min             =  -8.7233793233757E+00
(PID.TID 0000.0001) %MON dynstat_vvel_mean            =   4.6611009948279E-03
(PID.TID 0000.0001) %MON dynstat_vvel_sd              =   5.7934899027110E-01
(PID.TID 0000.0001) %MON dynstat_vvel_del2            =   1.9906283819892E-03
(PID.TID 0000.0001) %MON dynstat_wvel_max             =   5.7863938194579E-02
(PID.TID 0000.0001) %MON dynstat_wvel_min             =  -6.0279462116206E-01
(PID.TID 0000.0001) %MON dynstat_wvel_mean            =  -2.5892863987886E-03
(PID.TID 0000.0001) %MON dynstat_wvel_sd              =   1.9696126018936E-02
(PID.TID 0000.0001) %MON dynstat_wvel_del2            =   1.8679159815619E-04
(PID.TID 0000.0001) %MON dynstat_theta_max            =   4.3752934224765E+02
(PID.TID 0000.0001) %MON dynstat_theta_min            =   2.8859277600501E+02
(PID.TID 0000.0001) %MON dynstat_theta_mean           =   3.3171660968955E+02
(PID.TID 0000.0001) %MON dynstat_theta_sd             =   4.7417191089647E+01
(PID.TID 0000.0001) %MON dynstat_theta_del2           =   4.7572773026267E-04
(PID.TID 0000.0001) %MON dynstat_salt_max             =   1.6273649487507E+00
(PID.TID 0000.0001) %MON dynstat_salt_min             =  -1.6128072829195E-03
(PID.TID 0000.0001) %MON dynstat_salt_mean            =   1.5760546516615E-02
(PID.TID 0000.0001) %MON dynstat_salt_sd              =   6.8254280155397E-02
(PID.TID 0000.0001) %MON dynstat_salt_del2            =   3.4386533632558E-04
(PID.TID 0000.0001) %MON advcfl_uvel_max              =   1.0101644376691E-02
(PID.TID 0000.0001) %MON advcfl_vvel_max              =   1.2407690240983E-02
(PID.TID 0000.0001) %MON advcfl_wvel_max              =   9.8639119826519E-03
(PID.TID 0000.0001) %MON advcfl_W_hf_max              =   1.2294355795132E-02
(PID.TID 0000.0001) %MON am_eta_mean                  =  -3.8252581013131E+08
(PID.TID 0000.0001) %MON am_uZo_mean                  =   3.4696307477725E+08
(PID.TID 0000.0001) %MON am_tot_mean                  =  -3.5562735354058E+07
(PID.TID 0000.0001) %MON pe_b_mean                    =  -5.7504552851677E-01
(PID.TID 0000.0001) %MON ke_max                       =   2.9089048460482E+01
(PID.TID 0000.0001) %MON ke_mean                      =   3.6195502683993E-01
(PID.TID 0000.0001) %MON ke_vol                       =   4.9523908919847E+19
(PID.TID 0000.0001) %MON vort_r_min                   =  -2.3133447867343E-05
(PID.TID 0000.0001) %MON vort_r_max                   =   1.2854295633302E-05
(PID.TID 0000.0001) %MON vort_a_mean                  =   6.7242814765256E-08
(PID.TID 0000.0001) %MON vort_a_sd                    =   8.3939797560230E-05
(PID.TID 0000.0001) %MON vort_p_mean                  =   6.8939448728032E-08
(PID.TID 0000.0001) %MON vort_p_sd                    =   9.1687988334147E-05
(PID.TID 0000.0001) %MON surfExpan_theta_mean         =   2.5002518389981E-01
(PID.TID 0000.0001) %MON surfExpan_salt_mean          =  -5.3113056313609E-06
(PID.TID 0000.0001) %MON surfExpan_Heat_mean          =  -2.0427606112483E+01
(PID.TID 0000.0001) %MON En_Budget_T2PE_mean          =   3.8950558862318E+01
(PID.TID 0000.0001) // =======================================================
(PID.TID 0000.0001) // End MONITOR dynamic field statistics
(PID.TID 0000.0001) // =======================================================
(PID.TID 0000.0001) // =======================================================
(PID.TID 0000.0001) // Begin MONITOR Land statistics
(PID.TID 0000.0001) // =======================================================
(PID.TID 0000.0001) %MON land_time_sec                =   1.8000000000000E+03
(PID.TID 0000.0001) %MON land_SnwH_ave_G              =   1.5324495256342E-01
(PID.TID 0000.0001) %MON land_SnwH_ave_S              =   5.5905997141453E-01
(PID.TID 0000.0001) %MON land_SnwH_ave_T              =   0.0000000000000E+00
(PID.TID 0000.0001) %MON land_SnwH_ave_N              =   1.2393350558289E-01
(PID.TID 0000.0001) %MON land_SnwH_max_S              =   9.9999802254919E-01
(PID.TID 0000.0001) %MON land_SnwH_max_T              =   0.0000000000000E+00
(PID.TID 0000.0001) %MON land_SnwH_max_N              =   9.9999972372193E-01
(PID.TID 0000.0001) %MON land_Tsrf_ave_G              =  -5.7207471039527E+00
(PID.TID 0000.0001) %MON land_Tsrf_ave_S              =  -5.8109305099003E+00
(PID.TID 0000.0001) %MON land_Tsrf_ave_T              =   1.6284897555542E+01
(PID.TID 0000.0001) %MON land_Tsrf_ave_N              =  -2.0386214485233E+01
(PID.TID 0000.0001) %MON land_Tsrf_min_S              =  -3.4683808700159E+01
(PID.TID 0000.0001) %MON land_Tsrf_min_T              =  -7.0436049530185E+00
(PID.TID 0000.0001) %MON land_Tsrf_min_N              =  -5.0876863213247E+01
(PID.TID 0000.0001) %MON land_Tsrf_max_S              =   2.8301802590534E+01
(PID.TID 0000.0001) %MON land_Tsrf_max_T              =   3.1360334140158E+01
(PID.TID 0000.0001) %MON land_Tsrf_max_N              =   1.3562097434641E+01
(PID.TID 0000.0001) %MON land_Tgr1_ave_G              =  -4.3133435587036E+00
(PID.TID 0000.0001) %MON land_Tgr1_ave_S              =  -4.8557692715074E+00
(PID.TID 0000.0001) %MON land_Tgr1_ave_T              =   1.6284897555542E+01
(PID.TID 0000.0001) %MON land_Tgr1_ave_N              =  -1.7892283594708E+01
(PID.TID 0000.0001) %MON land_Tgr1_min_S              =  -3.9035730703634E+01
(PID.TID 0000.0001) %MON land_Tgr1_min_T              =  -7.0436049530185E+00
(PID.TID 0000.0001) %MON land_Tgr1_min_N              =  -5.4965254724047E+01
(PID.TID 0000.0001) %MON land_Tgr1_max_S              =   2.8301802590534E+01
(PID.TID 0000.0001) %MON land_Tgr1_max_T              =   3.1360334140158E+01
(PID.TID 0000.0001) %MON land_Tgr1_max_N              =   1.3562097434641E+01
(PID.TID 0000.0001) %MON land_Tgr2_ave_G              =   4.2071043202780E+00
(PID.TID 0000.0001) %MON land_Tgr2_ave_S              =  -1.8730945685686E+01
(PID.TID 0000.0001) %MON land_Tgr2_ave_T              =   2.2012818206592E+01
(PID.TID 0000.0001) %MON land_Tgr2_ave_N              =  -2.4206409772231E-01
(PID.TID 0000.0001) %MON land_Tgr2_min_S              =  -6.4760559188216E+01
(PID.TID 0000.0001) %MON land_Tgr2_min_T              =  -9.7049909390646E+00
(PID.TID 0000.0001) %MON land_Tgr2_min_N              =  -4.0194583726193E+01
(PID.TID 0000.0001) %MON land_Tgr2_max_S              =   2.3360456317202E+01
(PID.TID 0000.0001) %MON land_Tgr2_max_T              =   3.1359846955397E+01
(PID.TID 0000.0001) %MON land_Tgr2_max_N              =   2.9831342373395E+01
(PID.TID 0000.0001) %MON land_TotEnerg_G              =  -6.2755009391462E+21
(PID.TID 0000.0001) %MON land_TotEnerg_S              =  -4.9946860943426E+21
(PID.TID 0000.0001) %MON land_TotEnerg_T              =   7.3299718334435E+21
(PID.TID 0000.0001) %MON land_TotEnerg_N              =  -8.6107866782471E+21
(PID.TID 0000.0001) %MON land_grdW_ave_G              =   4.8698184429002E-01
(PID.TID 0000.0001) %MON land_grdW_ave_S              =   3.0872085447389E-01
(PID.TID 0000.0001) %MON land_grdW_ave_T              =   5.6474441172457E-01
(PID.TID 0000.0001) %MON land_grdW_ave_N              =   4.9288106765023E-01
(PID.TID 0000.0001) %MON land_grdW_min_S              =   2.5981784559172E-02
(PID.TID 0000.0001) %MON land_grdW_min_T              =   0.0000000000000E+00
(PID.TID 0000.0001) %MON land_grdW_min_N              =   0.0000000000000E+00
(PID.TID 0000.0001) // =======================================================
(PID.TID 0000.0001) // End MONITOR Land statistics
(PID.TID 0000.0001) // =======================================================
(PID.TID 0000.0001) // =======================================================
(PID.TID 0000.0001) // Begin MONITOR Therm.SeaIce statistics
(PID.TID 0000.0001) // =======================================================
(PID.TID 0000.0001) %MON thSI_time_sec                =   1.8000000000000E+03
(PID.TID 0000.0001) %MON thSI_Ice_Area_G              =   6.0853194853414E+10
(PID.TID 0000.0001) %MON thSI_Ice_Area_S              =   0.0000000000000E+00
(PID.TID 0000.0001) %MON thSI_Ice_Area_N              =   6.0853194853414E+10
(PID.TID 0000.0001) %MON thSI_IceH_ave_G              =   9.6350295253866E-02
(PID.TID 0000.0001) %MON thSI_IceH_ave_S              =   0.0000000000000E+00
(PID.TID 0000.0001) %MON thSI_IceH_ave_N              =   9.6350295253866E-02
(PID.TID 0000.0001) %MON thSI_IceH_max_S              =   0.0000000000000E+00
(PID.TID 0000.0001) %MON thSI_IceH_max_N              =   1.0892218057006E-01
(PID.TID 0000.0001) %MON thSI_SnwH_ave_G              =   0.0000000000000E+00
(PID.TID 0000.0001) %MON thSI_SnwH_ave_S              =   0.0000000000000E+00
(PID.TID 0000.0001) %MON thSI_SnwH_ave_N              =   0.0000000000000E+00
(PID.TID 0000.0001) %MON thSI_SnwH_max_S              =   0.0000000000000E+00
(PID.TID 0000.0001) %MON thSI_SnwH_max_N              =   0.0000000000000E+00
(PID.TID 0000.0001) %MON thSI_Tsrf_ave_G              =  -4.7441086191023E+00
(PID.TID 0000.0001) %MON thSI_Tsrf_ave_S              =   0.0000000000000E+00
(PID.TID 0000.0001) %MON thSI_Tsrf_ave_N              =  -4.7441086191023E+00
(PID.TID 0000.0001) %MON thSI_Tsrf_min_S              =   0.0000000000000E+00
(PID.TID 0000.0001) %MON thSI_Tsrf_min_N              =  -4.9607630217762E+00
(PID.TID 0000.0001) %MON thSI_Tsrf_max_S              =   0.0000000000000E+00
(PID.TID 0000.0001) %MON thSI_Tsrf_max_N              =  -3.2217635700939E+00
(PID.TID 0000.0001) %MON thSI_Tic1_ave_G              =  -2.5287316260418E+00
(PID.TID 0000.0001) %MON thSI_Tic1_ave_S              =   0.0000000000000E+00
(PID.TID 0000.0001) %MON thSI_Tic1_ave_N              =  -2.5287316260418E+00
(PID.TID 0000.0001) %MON thSI_Tic1_min_S              =   0.0000000000000E+00
(PID.TID 0000.0001) %MON thSI_Tic1_min_N              =  -3.3365401166252E+00
(PID.TID 0000.0001) %MON thSI_Tic1_max_S              =   0.0000000000000E+00
(PID.TID 0000.0001) %MON thSI_Tic1_max_N              =  -2.4271567627136E+00
(PID.TID 0000.0001) %MON thSI_Tic2_ave_G              =  -1.8236949790493E+00
(PID.TID 0000.0001) %MON thSI_Tic2_ave_S              =   0.0000000000000E+00
(PID.TID 0000.0001) %MON thSI_Tic2_ave_N              =  -1.8236949790493E+00
(PID.TID 0000.0001) %MON thSI_Tic2_min_S              =   0.0000000000000E+00
(PID.TID 0000.0001) %MON thSI_Tic2_min_N              =  -2.2051092081677E+00
(PID.TID 0000.0001) %MON thSI_Tic2_max_S              =   0.0000000000000E+00
(PID.TID 0000.0001) %MON thSI_Tic2_max_N              =  -1.7584923441016E+00
(PID.TID 0000.0001) %MON thSI_TotEnerg_G              =  -1.7683609787659E+18
(PID.TID 0000.0001) // =======================================================
(PID.TID 0000.0001) // End MONITOR Therm.SeaIce statistics
(PID.TID 0000.0001) // =======================================================
 cg2d: Sum(rhs),rhsMax =   8.86757334228605E-11  1.79889993852639E+04
(PID.TID 0000.0001)      cg2d_init_res =   2.42246340890895E+04
(PID.TID 0000.0001)      cg2d_iters(min,last) =      -1      16
(PID.TID 0000.0001)      cg2d_last_res =   9.12918154335358E-11
(PID.TID 0000.0001) // =======================================================
(PID.TID 0000.0001) // Begin MONITOR dynamic field statistics
(PID.TID 0000.0001) // =======================================================
(PID.TID 0000.0001) %MON time_tsnumber                =                     5
(PID.TID 0000.0001) %MON time_secondsf                =   2.2500000000000E+03
(PID.TID 0000.0001) %MON dynstat_eta_max              =   3.1715298213811E+03
(PID.TID 0000.0001) %MON dynstat_eta_min              =  -2.7178574571814E+03
(PID.TID 0000.0001) %MON dynstat_eta_mean             =  -9.6018005488101E-16
(PID.TID 0000.0001) %MON dynstat_eta_sd               =   3.0048839845348E+02
(PID.TID 0000.0001) %MON dynstat_eta_del2             =   5.8099411281633E+00
(PID.TID 0000.0001) %MON dynstat_uvel_max             =   7.7250995902661E+00
(PID.TID 0000.0001) %MON dynstat_uvel_min             =  -7.5703749088558E+00
(PID.TID 0000.0001) %MON dynstat_uvel_mean            =  -4.2200232207293E-03
(PID.TID 0000.0001) %MON dynstat_uvel_sd              =   6.8873543704102E-01
(PID.TID 0000.0001) %MON dynstat_uvel_del2            =   1.5496942596163E-03
(PID.TID 0000.0001) %MON dynstat_vvel_max             =   7.5420054862397E+00
(PID.TID 0000.0001) %MON dynstat_vvel_min             =  -8.6059485547505E+00
(PID.TID 0000.0001) %MON dynstat_vvel_mean            =   5.9778466787462E-03
(PID.TID 0000.0001) %MON dynstat_vvel_sd              =   6.4329774128103E-01
(PID.TID 0000.0001) %MON dynstat_vvel_del2            =   1.4576910606335E-03
(PID.TID 0000.0001) %MON dynstat_wvel_max             =   5.0714479531086E-02
(PID.TID 0000.0001) %MON dynstat_wvel_min             =  -5.6082467780551E-01
(PID.TID 0000.0001) %MON dynstat_wvel_mean            =  -2.5154843508573E-03
(PID.TID 0000.0001) %MON dynstat_wvel_sd              =   1.8777505841173E-02
(PID.TID 0000.0001) %MON dynstat_wvel_del2            =   1.6661750710959E-04
(PID.TID 0000.0001) %MON dynstat_theta_max            =   4.3754921497036E+02
(PID.TID 0000.0001) %MON dynstat_theta_min            =   2.8834914479081E+02
(PID.TID 0000.0001) %MON dynstat_theta_mean           =   3.3171611537842E+02
(PID.TID 0000.0001) %MON dynstat_theta_sd             =   4.7418005208942E+01
(PID.TID 0000.0001) %MON dynstat_theta_del2           =   5.4860213327734E-04
(PID.TID 0000.0001) %MON dynstat_salt_max             =   1.9265041391947E+00
(PID.TID 0000.0001) %MON dynstat_salt_min             =  -9.4740104210328E-04
(PID.TID 0000.0001) %MON dynstat_salt_mean            =   1.9578891089971E-02
(PID.TID 0000.0001) %MON dynstat_salt_sd              =   8.4401782693240E-02
(PID.TID 0000.0001) %MON dynstat_salt_del2            =   4.0650952882896E-04
(PID.TID 0000.0001) %MON advcfl_uvel_max              =   1.0841358356147E-02
(PID.TID 0000.0001) %MON advcfl_vvel_max              =   1.2240662699493E-02
(PID.TID 0000.0001) %MON advcfl_wvel_max              =   9.1771310913628E-03
(PID.TID 0000.0001) %MON advcfl_W_hf_max              =   1.1417619563305E-02
(PID.TID 0000.0001) %MON am_eta_mean                  =  -5.9351666737380E+08
(PID.TID 0000.0001) %MON am_uZo_mean                  =   5.6050249931932E+08
(PID.TID 0000.0001) %MON am_tot_mean                  =  -3.3014168054480E+07
(PID.TID 0000.0001) %MON pe_b_mean                    =  -6.8999468084542E-01
(PID.TID 0000.0001) %MON ke_max                       =   3.3085116514104E+01
(PID.TID 0000.0001) %MON ke_mean                      =   4.4150398455069E-01
(PID.TID 0000.0001) %MON ke_vol                       =   4.9523908919847E+19
(PID.TID 0000.0001) %MON vort_r_min                   =  -2.5040274006488E-05
(PID.TID 0000.0001) %MON vort_r_max                   =   1.2414665184143E-05
(PID.TID 0000.0001) %MON vort_a_mean                  =   6.7242814765343E-08
(PID.TID 0000.0001) %MON vort_a_sd                    =   8.3941411806834E-05
(PID.TID 0000.0001) %MON vort_p_mean                  =   6.8939448912307E-08
(PID.TID 0000.0001) %MON vort_p_sd                    =   9.1718631256882E-05
(PID.TID 0000.0001) %MON surfExpan_theta_mean         =   2.4368066316156E-01
(PID.TID 0000.0001) %MON surfExpan_salt_mean          =  -1.4680005882130E-05
(PID.TID 0000.0001) %MON surfExpan_Heat_mean          =  -1.9970856071161E+01
(PID.TID 0000.0001) %MON En_Budget_T2PE_mean          =   3.7989785809852E+01
(PID.TID 0000.0001) // =======================================================
(PID.TID 0000.0001) // End MONITOR dynamic field statistics
(PID.TID 0000.0001) // =======================================================
(PID.TID 0000.0001) // =======================================================
(PID.TID 0000.0001) // Begin MONITOR Land statistics
(PID.TID 0000.0001) // =======================================================
(PID.TID 0000.0001) %MON land_time_sec                =   2.2500000000000E+03
(PID.TID 0000.0001) %MON land_SnwH_ave_G              =   1.5324375500918E-01
(PID.TID 0000.0001) %MON land_SnwH_ave_S              =   5.5905913389414E-01
(PID.TID 0000.0001) %MON land_SnwH_ave_T              =   0.0000000000000E+00
(PID.TID 0000.0001) %MON land_SnwH_ave_N              =   1.2393139154438E-01
(PID.TID 0000.0001) %MON land_SnwH_max_S              =   9.9999750939557E-01
(PID.TID 0000.0001) %MON land_SnwH_max_T              =   0.0000000000000E+00
(PID.TID 0000.0001) %MON land_SnwH_max_N              =   9.9999964349187E-01
(PID.TID 0000.0001) %MON land_Tsrf_ave_G              =  -5.9974295992690E+00
(PID.TID 0000.0001) %MON land_Tsrf_ave_S              =  -5.9027012795086E+00
(PID.TID 0000.0001) %MON land_Tsrf_ave_T              =   1.5595882173553E+01
(PID.TID 0000.0001) %MON land_Tsrf_ave_N              =  -2.0447537442467E+01
(PID.TID 0000.0001) %MON land_Tsrf_min_S              =  -3.4606703776991E+01
(PID.TID 0000.0001) %MON land_Tsrf_min_T              =  -6.8143041571317E+00
(PID.TID 0000.0001) %MON land_Tsrf_min_N              =  -5.0771943002203E+01
(PID.TID 0000.0001) %MON land_Tsrf_max_S              =   2.7369167818696E+01
(PID.TID 0000.0001) %MON land_Tsrf_max_T              =   3.0182666707076E+01
(PID.TID 0000.0001) %MON land_Tsrf_max_N              =   1.3047988485190E+01
(PID.TID 0000.0001) %MON land_Tgr1_ave_G              =  -4.6261860351500E+00
(PID.TID 0000.0001) %MON land_Tgr1_ave_S              =  -5.1318064280383E+00
(PID.TID 0000.0001) %MON land_Tgr1_ave_T              =   1.5595882173553E+01
(PID.TID 0000.0001) %MON land_Tgr1_ave_N              =  -1.7965868289411E+01
(PID.TID 0000.0001) %MON land_Tgr1_min_S              =  -3.9047968740969E+01
(PID.TID 0000.0001) %MON land_Tgr1_min_T              =  -6.8143041571317E+00
(PID.TID 0000.0001) %MON land_Tgr1_min_N              =  -5.4951101301989E+01
(PID.TID 0000.0001) %MON land_Tgr1_max_S              =   2.7369167818696E+01
(PID.TID 0000.0001) %MON land_Tgr1_max_T              =   3.0182666707076E+01
(PID.TID 0000.0001) %MON land_Tgr1_max_N              =   1.3047988485190E+01
(PID.TID 0000.0001) %MON land_Tgr2_ave_G              =   4.2069705290270E+00
(PID.TID 0000.0001) %MON land_Tgr2_ave_S              =  -1.8730719574674E+01
(PID.TID 0000.0001) %MON land_Tgr2_ave_T              =   2.2012711410656E+01
(PID.TID 0000.0001) %MON land_Tgr2_ave_N              =  -2.4233266575239E-01
(PID.TID 0000.0001) %MON land_Tgr2_min_S              =  -6.4760125422246E+01
(PID.TID 0000.0001) %MON land_Tgr2_min_T              =  -9.7049544140706E+00
(PID.TID 0000.0001) %MON land_Tgr2_min_N              =  -4.0194824133875E+01
(PID.TID 0000.0001) %MON land_Tgr2_max_S              =   2.3360519979711E+01
(PID.TID 0000.0001) %MON land_Tgr2_max_T              =   3.1359538927805E+01
(PID.TID 0000.0001) %MON land_Tgr2_max_N              =   2.9830962997582E+01
(PID.TID 0000.0001) %MON land_TotEnerg_G              =  -6.2834716714452E+21
(PID.TID 0000.0001) %MON land_TotEnerg_S              =  -4.9956273089667E+21
(PID.TID 0000.0001) %MON land_TotEnerg_T              =   7.3239415754979E+21
(PID.TID 0000.0001) %MON land_TotEnerg_N              =  -8.6117859379763E+21
(PID.TID 0000.0001) %MON land_grdW_ave_G              =   4.8696578069836E-01
(PID.TID 0000.0001) %MON land_grdW_ave_S              =   3.0870858169105E-01
(PID.TID 0000.0001) %MON land_grdW_ave_T              =   5.6470297372598E-01
(PID.TID 0000.0001) %MON land_grdW_ave_N              =   4.9288071862599E-01
(PID.TID 0000.0001) %MON land_grdW_min_S              =   2.6017203689325E-02
(PID.TID 0000.0001) %MON land_grdW_min_T              =   0.0000000000000E+00
(PID.TID 0000.0001) %MON land_grdW_min_N              =   0.0000000000000E+00
(PID.TID 0000.0001) // =======================================================
(PID.TID 0000.0001) // End MONITOR Land statistics
(PID.TID 0000.0001) // =======================================================
(PID.TID 0000.0001) // =======================================================
(PID.TID 0000.0001) // Begin MONITOR Therm.SeaIce statistics
(PID.TID 0000.0001) // =======================================================
(PID.TID 0000.0001) %MON thSI_time_sec                =   2.2500000000000E+03
(PID.TID 0000.0001) %MON thSI_Ice_Area_G              =   7.4412179845993E+10
(PID.TID 0000.0001) %MON thSI_Ice_Area_S              =   0.0000000000000E+00
(PID.TID 0000.0001) %MON thSI_Ice_Area_N              =   7.4412179845993E+10
(PID.TID 0000.0001) %MON thSI_IceH_ave_G              =   9.8391846120318E-02
(PID.TID 0000.0001) %MON thSI_IceH_ave_S              =   0.0000000000000E+00
(PID.TID 0000.0001) %MON thSI_IceH_ave_N              =   9.8391846120318E-02
(PID.TID 0000.0001) %MON thSI_IceH_max_S              =   0.0000000000000E+00
(PID.TID 0000.0001) %MON thSI_IceH_max_N              =   1.1187413167843E-01
(PID.TID 0000.0001) %MON thSI_SnwH_ave_G              =   0.0000000000000E+00
(PID.TID 0000.0001) %MON thSI_SnwH_ave_S              =   0.0000000000000E+00
(PID.TID 0000.0001) %MON thSI_SnwH_ave_N              =   0.0000000000000E+00
(PID.TID 0000.0001) %MON thSI_SnwH_max_S              =   0.0000000000000E+00
(PID.TID 0000.0001) %MON thSI_SnwH_max_N              =   0.0000000000000E+00
(PID.TID 0000.0001) %MON thSI_Tsrf_ave_G              =  -5.0487361628960E+00
(PID.TID 0000.0001) %MON thSI_Tsrf_ave_S              =   0.0000000000000E+00
(PID.TID 0000.0001) %MON thSI_Tsrf_ave_N              =  -5.0487361628960E+00
(PID.TID 0000.0001) %MON thSI_Tsrf_min_S              =   0.0000000000000E+00
(PID.TID 0000.0001) %MON thSI_Tsrf_min_N              =  -5.2980250984785E+00
(PID.TID 0000.0001) %MON thSI_Tsrf_max_S              =   0.0000000000000E+00
(PID.TID 0000.0001) %MON thSI_Tsrf_max_N              =  -3.2770458278652E+00
(PID.TID 0000.0001) %MON thSI_Tic1_ave_G              =  -2.8457106948526E+00
(PID.TID 0000.0001) %MON thSI_Tic1_ave_S              =   0.0000000000000E+00
(PID.TID 0000.0001) %MON thSI_Tic1_ave_N              =  -2.8457106948526E+00
(PID.TID 0000.0001) %MON thSI_Tic1_min_S              =   0.0000000000000E+00
(PID.TID 0000.0001) %MON thSI_Tic1_min_N              =  -3.5959813032943E+00
(PID.TID 0000.0001) %MON thSI_Tic1_max_S              =   0.0000000000000E+00
(PID.TID 0000.0001) %MON thSI_Tic1_max_N              =  -2.7417074784440E+00
(PID.TID 0000.0001) %MON thSI_Tic2_ave_G              =  -1.8998149226443E+00
(PID.TID 0000.0001) %MON thSI_Tic2_ave_S              =   0.0000000000000E+00
(PID.TID 0000.0001) %MON thSI_Tic2_ave_N              =  -1.8998149226443E+00
(PID.TID 0000.0001) %MON thSI_Tic2_min_S              =   0.0000000000000E+00
(PID.TID 0000.0001) %MON thSI_Tic2_min_N              =  -2.2990569587636E+00
(PID.TID 0000.0001) %MON thSI_Tic2_max_S              =   0.0000000000000E+00
(PID.TID 0000.0001) %MON thSI_Tic2_max_N              =  -1.8332988760364E+00
(PID.TID 0000.0001) %MON thSI_TotEnerg_G              =  -2.2134385041407E+18
(PID.TID 0000.0001) // =======================================================
(PID.TID 0000.0001) // End MONITOR Therm.SeaIce statistics
(PID.TID 0000.0001) // =======================================================
 cg2d: Sum(rhs),rhsMax =   6.68478605803102E-11  2.06462577695270E+04
(PID.TID 0000.0001)      cg2d_init_res =   2.25080316131285E+04
(PID.TID 0000.0001)      cg2d_iters(min,last) =      -1      16
(PID.TID 0000.0001)      cg2d_last_res =   8.38578361938716E-11
(PID.TID 0000.0001) // =======================================================
(PID.TID 0000.0001) // Begin MONITOR dynamic field statistics
(PID.TID 0000.0001) // =======================================================
(PID.TID 0000.0001) %MON time_tsnumber                =                     6
(PID.TID 0000.0001) %MON time_secondsf                =   2.7000000000000E+03
(PID.TID 0000.0001) %MON dynstat_eta_max              =   3.6544606035643E+03
(PID.TID 0000.0001) %MON dynstat_eta_min              =  -2.8736981860746E+03
(PID.TID 0000.0001) %MON dynstat_eta_mean             =   6.8907039232637E-15
(PID.TID 0000.0001) %MON dynstat_eta_sd               =   3.4259754253457E+02
(PID.TID 0000.0001) %MON dynstat_eta_del2             =   5.5976256060419E+00
(PID.TID 0000.0001) %MON dynstat_uvel_max             =   7.8572759656638E+00
(PID.TID 0000.0001) %MON dynstat_uvel_min             =  -7.8156863314584E+00
(PID.TID 0000.0001) %MON dynstat_uvel_mean            =  -4.9538225947607E-03
(PID.TID 0000.0001) %MON dynstat_uvel_sd              =   7.3194134482720E-01
(PID.TID 0000.0001) %MON dynstat_uvel_del2            =   1.3413543333770E-03
(PID.TID 0000.0001) %MON dynstat_vvel_max             =   7.4240787716995E+00
(PID.TID 0000.0001) %MON dynstat_vvel_min             =  -8.4884682566797E+00
(PID.TID 0000.0001) %MON dynstat_vvel_mean            =   7.3868797409351E-03
(PID.TID 0000.0001) %MON dynstat_vvel_sd              =   6.9901863393932E-01
(PID.TID 0000.0001) %MON dynstat_vvel_del2            =   1.2051011244782E-03
(PID.TID 0000.0001) %MON dynstat_wvel_max             =   6.4735959535982E-02
(PID.TID 0000.0001) %MON dynstat_wvel_min             =  -4.9942912077181E-01
(PID.TID 0000.0001) %MON dynstat_wvel_mean            =  -2.3536984451516E-03
(PID.TID 0000.0001) %MON dynstat_wvel_sd              =   1.7425732707352E-02
(PID.TID 0000.0001) %MON dynstat_wvel_del2            =   1.4755897527280E-04
(PID.TID 0000.0001) %MON dynstat_theta_max            =   4.3755711333025E+02
(PID.TID 0000.0001) %MON dynstat_theta_min            =   2.8810702060543E+02
(PID.TID 0000.0001) %MON dynstat_theta_mean           =   3.3171543774543E+02
(PID.TID 0000.0001) %MON dynstat_theta_sd             =   4.7419052443058E+01
(PID.TID 0000.0001) %MON dynstat_theta_del2           =   6.0993554146747E-04
(PID.TID 0000.0001) %MON dynstat_salt_max             =   2.1956435451342E+00
(PID.TID 0000.0001) %MON dynstat_salt_min             =  -1.0183265119470E-03
(PID.TID 0000.0001) %MON dynstat_salt_mean            =   2.3357689575666E-02
(PID.TID 0000.0001) %MON dynstat_salt_sd              =   1.0027188604343E-01
(PID.TID 0000.0001) %MON dynstat_salt_del2            =   4.6284126442106E-04
(PID.TID 0000.0001) %MON advcfl_uvel_max              =   1.1192663155884E-02
(PID.TID 0000.0001) %MON advcfl_vvel_max              =   1.2039376393544E-02
(PID.TID 0000.0001) %MON advcfl_wvel_max              =   8.1724765217206E-03
(PID.TID 0000.0001) %MON advcfl_W_hf_max              =   1.2168511262403E-02
(PID.TID 0000.0001) %MON am_eta_mean                  =  -8.4993685456102E+08
(PID.TID 0000.0001) %MON am_uZo_mean                  =   8.2096290670939E+08
(PID.TID 0000.0001) %MON am_tot_mean                  =  -2.8973947851629E+07
(PID.TID 0000.0001) %MON pe_b_mean                    =  -7.8875160914686E-01
(PID.TID 0000.0001) %MON ke_max                       =   3.5176704526785E+01
(PID.TID 0000.0001) %MON ke_mean                      =   5.0920467334294E-01
(PID.TID 0000.0001) %MON ke_vol                       =   4.9523908919847E+19
(PID.TID 0000.0001) %MON vort_r_min                   =  -2.6603941422422E-05
(PID.TID 0000.0001) %MON vort_r_max                   =   1.2388219448919E-05
(PID.TID 0000.0001) %MON vort_a_mean                  =   6.7242814765388E-08
(PID.TID 0000.0001) %MON vort_a_sd                    =   8.3943275901297E-05
(PID.TID 0000.0001) %MON vort_p_mean                  =   6.8939448990589E-08
(PID.TID 0000.0001) %MON vort_p_sd                    =   9.1749558515232E-05
(PID.TID 0000.0001) %MON surfExpan_theta_mean         =   2.2855707883432E-01
(PID.TID 0000.0001) %MON surfExpan_salt_mean          =  -2.7259873421171E-05
(PID.TID 0000.0001) %MON surfExpan_Heat_mean          =  -1.8804529566204E+01
(PID.TID 0000.0001) %MON En_Budget_T2PE_mean          =   3.5675372088005E+01
(PID.TID 0000.0001) // =======================================================
(PID.TID 0000.0001) // End MONITOR dynamic field statistics
(PID.TID 0000.0001) // =======================================================
(PID.TID 0000.0001) // =======================================================
(PID.TID 0000.0001) // Begin MONITOR Land statistics
(PID.TID 0000.0001) // =======================================================
(PID.TID 0000.0001) %MON land_time_sec                =   2.7000000000000E+03
(PID.TID 0000.0001) %MON land_SnwH_ave_G              =   1.5324262870753E-01
(PID.TID 0000.0001) %MON land_SnwH_ave_S              =   5.5905825829390E-01
(PID.TID 0000.0001) %MON land_SnwH_ave_T              =   0.0000000000000E+00
(PID.TID 0000.0001) %MON land_SnwH_ave_N              =   1.2392943180560E-01
(PID.TID 0000.0001) %MON land_SnwH_max_S              =   9.9999698882051E-01
(PID.TID 0000.0001) %MON land_SnwH_max_T              =   0.0000000000000E+00
(PID.TID 0000.0001) %MON land_SnwH_max_N              =   9.9999956681063E-01
(PID.TID 0000.0001) %MON land_Tsrf_ave_G              =  -6.2508357700390E+00
(PID.TID 0000.0001) %MON land_Tsrf_ave_S              =  -5.9894508050780E+00
(PID.TID 0000.0001) %MON land_Tsrf_ave_T              =   1.4983922776004E+01
(PID.TID 0000.0001) %MON land_Tsrf_ave_N              =  -2.0515574713512E+01
(PID.TID 0000.0001) %MON land_Tsrf_min_S              =  -3.4513750111738E+01
(PID.TID 0000.0001) %MON land_Tsrf_min_T              =  -6.5941598210620E+00
(PID.TID 0000.0001) %MON land_Tsrf_min_N              =  -5.1005637579627E+01
(PID.TID 0000.0001) %MON land_Tsrf_max_S              =   2.6537472314313E+01
(PID.TID 0000.0001) %MON land_Tsrf_max_T              =   2.9121132516341E+01
(PID.TID 0000.0001) %MON land_Tsrf_max_N              =   1.2566592629251E+01
(PID.TID 0000.0001) %MON land_Tgr1_ave_G              =  -4.9059462010643E+00
(PID.TID 0000.0001) %MON land_Tgr1_ave_S              =  -5.3763131038624E+00
(PID.TID 0000.0001) %MON land_Tgr1_ave_T              =   1.4983922776004E+01
(PID.TID 0000.0001) %MON land_Tgr1_ave_N              =  -1.8035231595635E+01
(PID.TID 0000.0001) %MON land_Tgr1_min_S              =  -3.9060081893052E+01
(PID.TID 0000.0001) %MON land_Tgr1_min_T              =  -6.5941598210620E+00
(PID.TID 0000.0001) %MON land_Tgr1_min_N              =  -5.4937198786568E+01
(PID.TID 0000.0001) %MON land_Tgr1_max_S              =   2.6537472314313E+01
(PID.TID 0000.0001) %MON land_Tgr1_max_T              =   2.9121132516341E+01
(PID.TID 0000.0001) %MON land_Tgr1_max_N              =   1.2566592629251E+01
(PID.TID 0000.0001) %MON land_Tgr2_ave_G              =   4.2068321494318E+00
(PID.TID 0000.0001) %MON land_Tgr2_ave_S              =  -1.8730497354823E+01
(PID.TID 0000.0001) %MON land_Tgr2_ave_T              =   2.2012594735469E+01
(PID.TID 0000.0001) %MON land_Tgr2_ave_N              =  -2.4260251517611E-01
(PID.TID 0000.0001) %MON land_Tgr2_min_S              =  -6.4759691883840E+01
(PID.TID 0000.0001) %MON land_Tgr2_min_T              =  -9.7049151077446E+00
(PID.TID 0000.0001) %MON land_Tgr2_min_N              =  -4.0195064271564E+01
(PID.TID 0000.0001) %MON land_Tgr2_max_S              =   2.3360568632538E+01
(PID.TID 0000.0001) %MON land_Tgr2_max_T              =   3.1359218189977E+01
(PID.TID 0000.0001) %MON land_Tgr2_max_N              =   2.9830572971791E+01
(PID.TID 0000.0001) %MON land_TotEnerg_G              =  -6.2906135512248E+21
(PID.TID 0000.0001) %MON land_TotEnerg_S              =  -4.9964571812262E+21
(PID.TID 0000.0001) %MON land_TotEnerg_T              =   7.3185953879703E+21
(PID.TID 0000.0001) %MON land_TotEnerg_N              =  -8.6127517579689E+21
(PID.TID 0000.0001) %MON land_grdW_ave_G              =   4.8695067307733E-01
(PID.TID 0000.0001) %MON land_grdW_ave_S              =   3.0869686003108E-01
(PID.TID 0000.0001) %MON land_grdW_ave_T              =   5.6466414778777E-01
(PID.TID 0000.0001) %MON land_grdW_ave_N              =   4.9288035101449E-01
(PID.TID 0000.0001) %MON land_grdW_min_S              =   2.6060234473334E-02
(PID.TID 0000.0001) %MON land_grdW_min_T              =   0.0000000000000E+00
(PID.TID 0000.0001) %MON land_grdW_min_N              =   0.0000000000000E+00
(PID.TID 0000.0001) // =======================================================
(PID.TID 0000.0001) // End MONITOR Land statistics
(PID.TID 0000.0001) // =======================================================
(PID.TID 0000.0001) // =======================================================
(PID.TID 0000.0001) // Begin MONITOR Therm.SeaIce statistics
(PID.TID 0000.0001) // =======================================================
(PID.TID 0000.0001) %MON thSI_time_sec                =   2.7000000000000E+03
(PID.TID 0000.0001) %MON thSI_Ice_Area_G              =   8.7409529737055E+10
(PID.TID 0000.0001) %MON thSI_Ice_Area_S              =   0.0000000000000E+00
(PID.TID 0000.0001) %MON thSI_Ice_Area_N              =   8.7409529737055E+10
(PID.TID 0000.0001) %MON thSI_IceH_ave_G              =   1.0042785182594E-01
(PID.TID 0000.0001) %MON thSI_IceH_ave_S              =   0.0000000000000E+00
(PID.TID 0000.0001) %MON thSI_IceH_ave_N              =   1.0042785182594E-01
(PID.TID 0000.0001) %MON thSI_IceH_max_S              =   0.0000000000000E+00
(PID.TID 0000.0001) %MON thSI_IceH_max_N              =   1.1481592555432E-01
(PID.TID 0000.0001) %MON thSI_SnwH_ave_G              =   0.0000000000000E+00
(PID.TID 0000.0001) %MON thSI_SnwH_ave_S              =   0.0000000000000E+00
(PID.TID 0000.0001) %MON thSI_SnwH_ave_N              =   0.0000000000000E+00
(PID.TID 0000.0001) %MON thSI_SnwH_max_S              =   0.0000000000000E+00
(PID.TID 0000.0001) %MON thSI_SnwH_max_N              =   0.0000000000000E+00
(PID.TID 0000.0001) %MON thSI_Tsrf_ave_G              =  -5.3438418716698E+00
(PID.TID 0000.0001) %MON thSI_Tsrf_ave_S              =   0.0000000000000E+00
(PID.TID 0000.0001) %MON thSI_Tsrf_ave_N              =  -5.3438418716698E+00
(PID.TID 0000.0001) %MON thSI_Tsrf_min_S              =   0.0000000000000E+00
(PID.TID 0000.0001) %MON thSI_Tsrf_min_N              =  -5.6315102515025E+00
(PID.TID 0000.0001) %MON thSI_Tsrf_max_S              =   0.0000000000000E+00
(PID.TID 0000.0001) %MON thSI_Tsrf_max_N              =  -3.3140479182363E+00
(PID.TID 0000.0001) %MON thSI_Tic1_ave_G              =  -3.1599094359816E+00
(PID.TID 0000.0001) %MON thSI_Tic1_ave_S              =   0.0000000000000E+00
(PID.TID 0000.0001) %MON thSI_Tic1_ave_N              =  -3.1599094359816E+00
(PID.TID 0000.0001) %MON thSI_Tic1_min_S              =   0.0000000000000E+00
(PID.TID 0000.0001) %MON thSI_Tic1_min_N              =  -3.7563993055622E+00
(PID.TID 0000.0001) %MON thSI_Tic1_max_S              =   0.0000000000000E+00
(PID.TID 0000.0001) %MON thSI_Tic1_max_N              =  -2.9060305786515E+00
(PID.TID 0000.0001) %MON thSI_Tic2_ave_G              =  -1.9803977365197E+00
(PID.TID 0000.0001) %MON thSI_Tic2_ave_S              =   0.0000000000000E+00
(PID.TID 0000.0001) %MON thSI_Tic2_ave_N              =  -1.9803977365197E+00
(PID.TID 0000.0001) %MON thSI_Tic2_min_S              =   0.0000000000000E+00
(PID.TID 0000.0001) %MON thSI_Tic2_min_N              =  -2.3579968157746E+00
(PID.TID 0000.0001) %MON thSI_Tic2_max_S              =   0.0000000000000E+00
(PID.TID 0000.0001) %MON thSI_Tic2_max_N              =  -1.9142276338526E+00
(PID.TID 0000.0001) %MON thSI_TotEnerg_G              =  -2.6595179672948E+18
(PID.TID 0000.0001) // =======================================================
(PID.TID 0000.0001) // End MONITOR Therm.SeaIce statistics
(PID.TID 0000.0001) // =======================================================
 cg2d: Sum(rhs),rhsMax =   3.36513039655983E-11  2.21100801361449E+04
(PID.TID 0000.0001)      cg2d_init_res =   2.13615630232605E+04
(PID.TID 0000.0001)      cg2d_iters(min,last) =      -1      16
(PID.TID 0000.0001)      cg2d_last_res =   7.64346922310018E-11
(PID.TID 0000.0001) // =======================================================
(PID.TID 0000.0001) // Begin MONITOR dynamic field statistics
(PID.TID 0000.0001) // =======================================================
(PID.TID 0000.0001) %MON time_tsnumber                =                     7
(PID.TID 0000.0001) %MON time_secondsf                =   3.1500000000000E+03
(PID.TID 0000.0001) %MON dynstat_eta_max              =   3.9356788513214E+03
(PID.TID 0000.0001) %MON dynstat_eta_min              =  -2.8400103848177E+03
(PID.TID 0000.0001) %MON dynstat_eta_mean             =  -1.0869489248718E-14
(PID.TID 0000.0001) %MON dynstat_eta_sd               =   3.7785651822532E+02
(PID.TID 0000.0001) %MON dynstat_eta_del2             =   5.2666233450622E+00
(PID.TID 0000.0001) %MON dynstat_uvel_max             =   7.6448578670244E+00
(PID.TID 0000.0001) %MON dynstat_uvel_min             =  -7.9900942413711E+00
(PID.TID 0000.0001) %MON dynstat_uvel_mean            =  -5.6385578307861E-03
(PID.TID 0000.0001) %MON dynstat_uvel_sd              =   7.6046207946785E-01
(PID.TID 0000.0001) %MON dynstat_uvel_del2            =   1.2291516190688E-03
(PID.TID 0000.0001) %MON dynstat_vvel_max             =   7.3980293032957E+00
(PID.TID 0000.0001) %MON dynstat_vvel_min             =  -8.6805852162193E+00
(PID.TID 0000.0001) %MON dynstat_vvel_mean            =   8.8853299002666E-03
(PID.TID 0000.0001) %MON dynstat_vvel_sd              =   7.4766883849340E-01
(PID.TID 0000.0001) %MON dynstat_vvel_del2            =   1.1589348358326E-03
(PID.TID 0000.0001) %MON dynstat_wvel_max             =   7.1201436996042E-02
(PID.TID 0000.0001) %MON dynstat_wvel_min             =  -4.3376781824923E-01
(PID.TID 0000.0001) %MON dynstat_wvel_mean            =  -2.1628482001566E-03
(PID.TID 0000.0001) %MON dynstat_wvel_sd              =   1.6131813389482E-02
(PID.TID 0000.0001) %MON dynstat_wvel_del2            =   1.3488079992157E-04
(PID.TID 0000.0001) %MON dynstat_theta_max            =   4.3755500918854E+02
(PID.TID 0000.0001) %MON dynstat_theta_min            =   2.8786522122820E+02
(PID.TID 0000.0001) %MON dynstat_theta_mean           =   3.3171458807905E+02
(PID.TID 0000.0001) %MON dynstat_theta_sd             =   4.7420275672243E+01
(PID.TID 0000.0001) %MON dynstat_theta_del2           =   6.6779990644075E-04
(PID.TID 0000.0001) %MON dynstat_salt_max             =   2.4385143490630E+00
(PID.TID 0000.0001) %MON dynstat_salt_min             =  -1.1545393817643E-03
(PID.TID 0000.0001) %MON dynstat_salt_mean            =   2.7100650296205E-02
(PID.TID 0000.0001) %MON dynstat_salt_sd              =   1.1590641765092E-01
(PID.TID 0000.0001) %MON dynstat_salt_del2            =   5.1412767213477E-04
(PID.TID 0000.0001) %MON advcfl_uvel_max              =   1.1364702905620E-02
(PID.TID 0000.0001) %MON advcfl_vvel_max              =   1.2311859993357E-02
(PID.TID 0000.0001) %MON advcfl_wvel_max              =   7.0980188440783E-03
(PID.TID 0000.0001) %MON advcfl_W_hf_max              =   1.2509239233157E-02
(PID.TID 0000.0001) %MON am_eta_mean                  =  -1.1506567780869E+09
(PID.TID 0000.0001) %MON am_uZo_mean                  =   1.1265284042323E+09
(PID.TID 0000.0001) %MON am_tot_mean                  =  -2.4128373854557E+07
(PID.TID 0000.0001) %MON pe_b_mean                    =  -8.7233926227611E-01
(PID.TID 0000.0001) %MON ke_max                       =   3.5746785071000E+01
(PID.TID 0000.0001) %MON ke_mean                      =   5.6536183452402E-01
(PID.TID 0000.0001) %MON ke_vol                       =   4.9523908919847E+19
(PID.TID 0000.0001) %MON vort_r_min                   =  -2.7356718199035E-05
(PID.TID 0000.0001) %MON vort_r_max                   =   1.5639237876906E-05
(PID.TID 0000.0001) %MON vort_a_mean                  =   6.7242814765355E-08
(PID.TID 0000.0001) %MON vort_a_sd                    =   8.3945328133337E-05
(PID.TID 0000.0001) %MON vort_p_mean                  =   6.8939449051061E-08
(PID.TID 0000.0001) %MON vort_p_sd                    =   9.1778888377526E-05
(PID.TID 0000.0001) %MON surfExpan_theta_mean         =   2.1037969753611E-01
(PID.TID 0000.0001) %MON surfExpan_salt_mean          =  -4.2451240871923E-05
(PID.TID 0000.0001) %MON surfExpan_Heat_mean          =  -1.7379305243305E+01
(PID.TID 0000.0001) %MON En_Budget_T2PE_mean          =   3.2884078110603E+01
(PID.TID 0000.0001) // =======================================================
(PID.TID 0000.0001) // End MONITOR dynamic field statistics
(PID.TID 0000.0001) // =======================================================
(PID.TID 0000.0001) // =======================================================
(PID.TID 0000.0001) // Begin MONITOR Land statistics
(PID.TID 0000.0001) // =======================================================
(PID.TID 0000.0001) %MON land_time_sec                =   3.1500000000000E+03
(PID.TID 0000.0001) %MON land_SnwH_ave_G              =   1.5324152976589E-01
(PID.TID 0000.0001) %MON land_SnwH_ave_S              =   5.5905735229126E-01
(PID.TID 0000.0001) %MON land_SnwH_ave_T              =   0.0000000000000E+00
(PID.TID 0000.0001) %MON land_SnwH_ave_N              =   1.2392753643481E-01
(PID.TID 0000.0001) %MON land_SnwH_max_S              =   9.9999645888296E-01
(PID.TID 0000.0001) %MON land_SnwH_max_T              =   0.0000000000000E+00
(PID.TID 0000.0001) %MON land_SnwH_max_N              =   9.9999949529747E-01
(PID.TID 0000.0001) %MON land_Tsrf_ave_G              =  -6.4827036088511E+00
(PID.TID 0000.0001) %MON land_Tsrf_ave_S              =  -6.0788723996242E+00
(PID.TID 0000.0001) %MON land_Tsrf_ave_T              =   1.4438263752227E+01
(PID.TID 0000.0001) %MON land_Tsrf_ave_N              =  -2.0584110721147E+01
(PID.TID 0000.0001) %MON land_Tsrf_min_S              =  -3.4403344029577E+01
(PID.TID 0000.0001) %MON land_Tsrf_min_T              =  -6.3826956342231E+00
(PID.TID 0000.0001) %MON land_Tsrf_min_N              =  -5.1376600761150E+01
(PID.TID 0000.0001) %MON land_Tsrf_max_S              =   2.5794950592829E+01
(PID.TID 0000.0001) %MON land_Tsrf_max_T              =   2.8162978269292E+01
(PID.TID 0000.0001) %MON land_Tsrf_max_N              =   1.2189812614319E+01
(PID.TID 0000.0001) %MON land_Tgr1_ave_G              =  -5.1573240080242E+00
(PID.TID 0000.0001) %MON land_Tgr1_ave_S              =  -5.5934551595344E+00
(PID.TID 0000.0001) %MON land_Tgr1_ave_T              =   1.4438263752227E+01
(PID.TID 0000.0001) %MON land_Tgr1_ave_N              =  -1.8101202929783E+01
(PID.TID 0000.0001) %MON land_Tgr1_min_S              =  -3.9072055648475E+01
(PID.TID 0000.0001) %MON land_Tgr1_min_T              =  -6.3826956342231E+00
(PID.TID 0000.0001) %MON land_Tgr1_min_N              =  -5.4923680424225E+01
(PID.TID 0000.0001) %MON land_Tgr1_max_S              =   2.5794950592829E+01
(PID.TID 0000.0001) %MON land_Tgr1_max_T              =   2.8162978269292E+01
(PID.TID 0000.0001) %MON land_Tgr1_max_N              =   1.2189812614319E+01
(PID.TID 0000.0001) %MON land_Tgr2_ave_G              =   4.2066896674063E+00
(PID.TID 0000.0001) %MON land_Tgr2_ave_S              =  -1.8730278590689E+01
(PID.TID 0000.0001) %MON land_Tgr2_ave_T              =   2.2012469318363E+01
(PID.TID 0000.0001) %MON land_Tgr2_ave_N              =  -2.4287357870643E-01
(PID.TID 0000.0001) %MON land_Tgr2_min_S              =  -6.4759258570836E+01
(PID.TID 0000.0001) %MON land_Tgr2_min_T              =  -9.7048731298407E+00
(PID.TID 0000.0001) %MON land_Tgr2_min_N              =  -4.0195304147828E+01
(PID.TID 0000.0001) %MON land_Tgr2_max_S              =   2.3360603927214E+01
(PID.TID 0000.0001) %MON land_Tgr2_max_T              =   3.1358885924028E+01
(PID.TID 0000.0001) %MON land_Tgr2_max_N              =   2.9830172912042E+01
(PID.TID 0000.0001) %MON land_TotEnerg_G              =  -6.2970434303638E+21
(PID.TID 0000.0001) %MON land_TotEnerg_S              =  -4.9971909657728E+21
(PID.TID 0000.0001) %MON land_TotEnerg_T              =   7.3138343912128E+21
(PID.TID 0000.0001) %MON land_TotEnerg_N              =  -8.6136868558038E+21
(PID.TID 0000.0001) %MON land_grdW_ave_G              =   4.8693641486044E-01
(PID.TID 0000.0001) %MON land_grdW_ave_S              =   3.0868561369817E-01
(PID.TID 0000.0001) %MON land_grdW_ave_T              =   5.6462761523344E-01
(PID.TID 0000.0001) %MON land_grdW_ave_N              =   4.9287998990825E-01
(PID.TID 0000.0001) %MON land_grdW_min_S              =   2.6109855104517E-02
(PID.TID 0000.0001) %MON land_grdW_min_T              =   0.0000000000000E+00
(PID.TID 0000.0001) %MON land_grdW_min_N              =   0.0000000000000E+00
(PID.TID 0000.0001) // =======================================================
(PID.TID 0000.0001) // End MONITOR Land statistics
(PID.TID 0000.0001) // =======================================================
(PID.TID 0000.0001) // =======================================================
(PID.TID 0000.0001) // Begin MONITOR Therm.SeaIce statistics
(PID.TID 0000.0001) // =======================================================
(PID.TID 0000.0001) %MON thSI_time_sec                =   3.1500000000000E+03
(PID.TID 0000.0001) %MON thSI_Ice_Area_G              =   9.9886265050543E+10
(PID.TID 0000.0001) %MON thSI_Ice_Area_S              =   0.0000000000000E+00
(PID.TID 0000.0001) %MON thSI_Ice_Area_N              =   9.9886265050543E+10
(PID.TID 0000.0001) %MON thSI_IceH_ave_G              =   1.0245803204763E-01
(PID.TID 0000.0001) %MON thSI_IceH_ave_S              =   0.0000000000000E+00
(PID.TID 0000.0001) %MON thSI_IceH_ave_N              =   1.0245803204763E-01
(PID.TID 0000.0001) %MON thSI_IceH_max_S              =   0.0000000000000E+00
(PID.TID 0000.0001) %MON thSI_IceH_max_N              =   1.1774749763556E-01
(PID.TID 0000.0001) %MON thSI_SnwH_ave_G              =   0.0000000000000E+00
(PID.TID 0000.0001) %MON thSI_SnwH_ave_S              =   0.0000000000000E+00
(PID.TID 0000.0001) %MON thSI_SnwH_ave_N              =   0.0000000000000E+00
(PID.TID 0000.0001) %MON thSI_SnwH_max_S              =   0.0000000000000E+00
(PID.TID 0000.0001) %MON thSI_SnwH_max_N              =   0.0000000000000E+00
(PID.TID 0000.0001) %MON thSI_Tsrf_ave_G              =  -5.6267315964770E+00
(PID.TID 0000.0001) %MON thSI_Tsrf_ave_S              =   0.0000000000000E+00
(PID.TID 0000.0001) %MON thSI_Tsrf_ave_N              =  -5.6267315964770E+00
(PID.TID 0000.0001) %MON thSI_Tsrf_min_S              =   0.0000000000000E+00
(PID.TID 0000.0001) %MON thSI_Tsrf_min_N              =  -5.9535331005970E+00
(PID.TID 0000.0001) %MON thSI_Tsrf_max_S              =   0.0000000000000E+00
(PID.TID 0000.0001) %MON thSI_Tsrf_max_N              =  -3.3451177431439E+00
(PID.TID 0000.0001) %MON thSI_Tic1_ave_G              =  -3.4647920944127E+00
(PID.TID 0000.0001) %MON thSI_Tic1_ave_S              =   0.0000000000000E+00
(PID.TID 0000.0001) %MON thSI_Tic1_ave_N              =  -3.4647920944127E+00
(PID.TID 0000.0001) %MON thSI_Tic1_min_S              =   0.0000000000000E+00
(PID.TID 0000.0001) %MON thSI_Tic1_min_N              =  -3.8571618799174E+00
(PID.TID 0000.0001) %MON thSI_Tic1_max_S              =   0.0000000000000E+00
(PID.TID 0000.0001) %MON thSI_Tic1_max_N              =  -2.9299044650946E+00
(PID.TID 0000.0001) %MON thSI_Tic2_ave_G              =  -2.0626933155238E+00
(PID.TID 0000.0001) %MON thSI_Tic2_ave_S              =   0.0000000000000E+00
(PID.TID 0000.0001) %MON thSI_Tic2_ave_N              =  -2.0626933155238E+00
(PID.TID 0000.0001) %MON thSI_Tic2_min_S              =   0.0000000000000E+00
(PID.TID 0000.0001) %MON thSI_Tic2_min_N              =  -2.3950620330128E+00
(PID.TID 0000.0001) %MON thSI_Tic2_max_S              =   0.0000000000000E+00
(PID.TID 0000.0001) %MON thSI_Tic2_max_N              =  -1.9981495168194E+00
(PID.TID 0000.0001) %MON thSI_TotEnerg_G              =  -3.1065192351145E+18
(PID.TID 0000.0001) // =======================================================
(PID.TID 0000.0001) // End MONITOR Therm.SeaIce statistics
(PID.TID 0000.0001) // =======================================================
 cg2d: Sum(rhs),rhsMax =  -1.27329258248210E-11  2.24901359437884E+04
(PID.TID 0000.0001)      cg2d_init_res =   2.04212269626868E+04
(PID.TID 0000.0001)      cg2d_iters(min,last) =      -1      16
(PID.TID 0000.0001)      cg2d_last_res =   7.63780899168290E-11
(PID.TID 0000.0001) // =======================================================
(PID.TID 0000.0001) // Begin MONITOR dynamic field statistics
(PID.TID 0000.0001) // =======================================================
(PID.TID 0000.0001) %MON time_tsnumber                =                     8
(PID.TID 0000.0001) %MON time_secondsf                =   3.6000000000000E+03
(PID.TID 0000.0001) %MON dynstat_eta_max              =   4.0366092643554E+03
(PID.TID 0000.0001) %MON dynstat_eta_min              =  -2.6638977543535E+03
(PID.TID 0000.0001) %MON dynstat_eta_mean             =   2.3847609206195E-15
(PID.TID 0000.0001) %MON dynstat_eta_sd               =   4.0818540798314E+02
(PID.TID 0000.0001) %MON dynstat_eta_del2             =   4.9547105833594E+00
(PID.TID 0000.0001) %MON dynstat_uvel_max             =   7.2803486993493E+00
(PID.TID 0000.0001) %MON dynstat_uvel_min             =  -8.0428384252948E+00
(PID.TID 0000.0001) %MON dynstat_uvel_mean            =  -6.2851807402043E-03
(PID.TID 0000.0001) %MON dynstat_uvel_sd              =   7.7765908921640E-01
(PID.TID 0000.0001) %MON dynstat_uvel_del2            =   1.1587407376098E-03
(PID.TID 0000.0001) %MON dynstat_vvel_max             =   7.9606782915821E+00
(PID.TID 0000.0001) %MON dynstat_vvel_min             =  -8.4876322864043E+00
(PID.TID 0000.0001) %MON dynstat_vvel_mean            =   1.0459484364616E-02
(PID.TID 0000.0001) %MON dynstat_vvel_sd              =   7.8823552943890E-01
(PID.TID 0000.0001) %MON dynstat_vvel_del2            =   1.1861458364723E-03
(PID.TID 0000.0001) %MON dynstat_wvel_max             =   1.0978628090060E-01
(PID.TID 0000.0001) %MON dynstat_wvel_min             =  -3.7090180270310E-01
(PID.TID 0000.0001) %MON dynstat_wvel_mean            =  -1.9724814255652E-03
(PID.TID 0000.0001) %MON dynstat_wvel_sd              =   1.5070621970027E-02
(PID.TID 0000.0001) %MON dynstat_wvel_del2            =   1.2843065022981E-04
(PID.TID 0000.0001) %MON dynstat_theta_max            =   4.3755358956114E+02
(PID.TID 0000.0001) %MON dynstat_theta_min            =   2.8762305472295E+02
(PID.TID 0000.0001) %MON dynstat_theta_mean           =   3.3171358378031E+02
(PID.TID 0000.0001) %MON dynstat_theta_sd             =   4.7421635611718E+01
(PID.TID 0000.0001) %MON dynstat_theta_del2           =   7.2807794749723E-04
(PID.TID 0000.0001) %MON dynstat_salt_max             =   2.6582272808382E+00
(PID.TID 0000.0001) %MON dynstat_salt_min             =  -1.4283286348779E-03
(PID.TID 0000.0001) %MON dynstat_salt_mean            =   3.0810930357033E-02
(PID.TID 0000.0001) %MON dynstat_salt_sd              =   1.3133252934253E-01
(PID.TID 0000.0001) %MON dynstat_salt_del2            =   5.6100510428672E-04
(PID.TID 0000.0001) %MON advcfl_uvel_max              =   1.1439723545200E-02
(PID.TID 0000.0001) %MON advcfl_vvel_max              =   1.2038190718992E-02
(PID.TID 0000.0001) %MON advcfl_wvel_max              =   6.0693022260507E-03
(PID.TID 0000.0001) %MON advcfl_W_hf_max              =   1.2390715604515E-02
(PID.TID 0000.0001) %MON am_eta_mean                  =  -1.4941955998478E+09
(PID.TID 0000.0001) %MON am_uZo_mean                  =   1.4749711972338E+09
(PID.TID 0000.0001) %MON am_tot_mean                  =  -1.9224402613997E+07
(PID.TID 0000.0001) %MON pe_b_mean                    =  -9.4088809318915E-01
(PID.TID 0000.0001) %MON ke_max                       =   3.7646771746305E+01
(PID.TID 0000.0001) %MON ke_mean                      =   6.0949930063799E-01
(PID.TID 0000.0001) %MON ke_vol                       =   4.9523908919847E+19
(PID.TID 0000.0001) %MON vort_r_min                   =  -2.7473794521214E-05
(PID.TID 0000.0001) %MON vort_r_max                   =   1.8071313616583E-05
(PID.TID 0000.0001) %MON vort_a_mean                  =   6.7242814765311E-08
(PID.TID 0000.0001) %MON vort_a_sd                    =   8.3947522493034E-05
(PID.TID 0000.0001) %MON vort_p_mean                  =   6.8939449220027E-08
(PID.TID 0000.0001) %MON vort_p_sd                    =   9.1805498571565E-05
(PID.TID 0000.0001) %MON surfExpan_theta_mean         =   1.9203661058938E-01
(PID.TID 0000.0001) %MON surfExpan_salt_mean          =  -6.0054241587147E-05
(PID.TID 0000.0001) %MON surfExpan_Heat_mean          =  -1.5928395171268E+01
(PID.TID 0000.0001) %MON En_Budget_T2PE_mean          =   3.0062815455349E+01
(PID.TID 0000.0001) // =======================================================
(PID.TID 0000.0001) // End MONITOR dynamic field statistics
(PID.TID 0000.0001) // =======================================================
(PID.TID 0000.0001) // =======================================================
(PID.TID 0000.0001) // Begin MONITOR Land statistics
(PID.TID 0000.0001) // =======================================================
(PID.TID 0000.0001) %MON land_time_sec                =   3.6000000000000E+03
(PID.TID 0000.0001) %MON land_SnwH_ave_G              =   1.5324044895066E-01
(PID.TID 0000.0001) %MON land_SnwH_ave_S              =   5.5905642397716E-01
(PID.TID 0000.0001) %MON land_SnwH_ave_T              =   0.0000000000000E+00
(PID.TID 0000.0001) %MON land_SnwH_ave_N              =   1.2392568441251E-01
(PID.TID 0000.0001) %MON land_SnwH_max_S              =   9.9999591834189E-01
(PID.TID 0000.0001) %MON land_SnwH_max_T              =   0.0000000000000E+00
(PID.TID 0000.0001) %MON land_SnwH_max_N              =   9.9999942777420E-01
(PID.TID 0000.0001) %MON land_Tsrf_ave_G              =  -6.6939774988586E+00
(PID.TID 0000.0001) %MON land_Tsrf_ave_S              =  -6.1754318013759E+00
(PID.TID 0000.0001) %MON land_Tsrf_ave_T              =   1.3950077511623E+01
(PID.TID 0000.0001) %MON land_Tsrf_ave_N              =  -2.0647683368303E+01
(PID.TID 0000.0001) %MON land_Tsrf_min_S              =  -3.4282176866604E+01
(PID.TID 0000.0001) %MON land_Tsrf_min_T              =  -6.1791990991633E+00
(PID.TID 0000.0001) %MON land_Tsrf_min_N              =  -5.1687917637732E+01
(PID.TID 0000.0001) %MON land_Tsrf_max_S              =   2.5131128316388E+01
(PID.TID 0000.0001) %MON land_Tsrf_max_T              =   2.7297650157412E+01
(PID.TID 0000.0001) %MON land_Tsrf_max_N              =   1.1880895207929E+01
(PID.TID 0000.0001) %MON land_Tgr1_ave_G              =  -5.3838604224376E+00
(PID.TID 0000.0001) %MON land_Tgr1_ave_S              =  -5.7867212141091E+00
(PID.TID 0000.0001) %MON land_Tgr1_ave_T              =   1.3950077511623E+01
(PID.TID 0000.0001) %MON land_Tgr1_ave_N              =  -1.8163809987268E+01
(PID.TID 0000.0001) %MON land_Tgr1_min_S              =  -3.9083874925464E+01
(PID.TID 0000.0001) %MON land_Tgr1_min_T              =  -6.1791990991633E+00
(PID.TID 0000.0001) %MON land_Tgr1_min_N              =  -5.4910487508101E+01
(PID.TID 0000.0001) %MON land_Tgr1_max_S              =   2.5131128316388E+01
(PID.TID 0000.0001) %MON land_Tgr1_max_T              =   2.7297650157412E+01
(PID.TID 0000.0001) %MON land_Tgr1_max_N              =   1.1880895207929E+01
(PID.TID 0000.0001) %MON land_Tgr2_ave_G              =   4.2065435055275E+00
(PID.TID 0000.0001) %MON land_Tgr2_ave_S              =  -1.8730062901527E+01
(PID.TID 0000.0001) %MON land_Tgr2_ave_T              =   2.2012336137812E+01
(PID.TID 0000.0001) %MON land_Tgr2_ave_N              =  -2.4314579140618E-01
(PID.TID 0000.0001) %MON land_Tgr2_min_S              =  -6.4758825480903E+01
(PID.TID 0000.0001) %MON land_Tgr2_min_T              =  -9.7048285811296E+00
(PID.TID 0000.0001) %MON land_Tgr2_min_N              =  -4.0195543770480E+01
(PID.TID 0000.0001) %MON land_Tgr2_max_S              =   2.3360627310450E+01
(PID.TID 0000.0001) %MON land_Tgr2_max_T              =   3.1358543470466E+01
(PID.TID 0000.0001) %MON land_Tgr2_max_N              =   2.9829763334887E+01
(PID.TID 0000.0001) %MON land_TotEnerg_G              =  -6.3028562440986E+21
(PID.TID 0000.0001) %MON land_TotEnerg_S              =  -4.9978413268390E+21
(PID.TID 0000.0001) %MON land_TotEnerg_T              =   7.3095786232485E+21
(PID.TID 0000.0001) %MON land_TotEnerg_N              =  -8.6145935405081E+21
(PID.TID 0000.0001) %MON land_grdW_ave_G              =   4.8692290559767E-01
(PID.TID 0000.0001) %MON land_grdW_ave_S              =   3.0867477871034E-01
(PID.TID 0000.0001) %MON land_grdW_ave_T              =   5.6459310400970E-01
(PID.TID 0000.0001) %MON land_grdW_ave_N              =   4.9287963761886E-01
(PID.TID 0000.0001) %MON land_grdW_min_S              =   2.6165192642462E-02
(PID.TID 0000.0001) %MON land_grdW_min_T              =   0.0000000000000E+00
(PID.TID 0000.0001) %MON land_grdW_min_N              =   0.0000000000000E+00
(PID.TID 0000.0001) // =======================================================
(PID.TID 0000.0001) // End MONITOR Land statistics
(PID.TID 0000.0001) // =======================================================
(PID.TID 0000.0001) // =======================================================
(PID.TID 0000.0001) // Begin MONITOR Therm.SeaIce statistics
(PID.TID 0000.0001) // =======================================================
(PID.TID 0000.0001) %MON thSI_time_sec                =   3.6000000000000E+03
(PID.TID 0000.0001) %MON thSI_Ice_Area_G              =   1.1187931898140E+11
(PID.TID 0000.0001) %MON thSI_Ice_Area_S              =   0.0000000000000E+00
(PID.TID 0000.0001) %MON thSI_Ice_Area_N              =   1.1187931898140E+11
(PID.TID 0000.0001) %MON thSI_IceH_ave_G              =   1.0448213544562E-01
(PID.TID 0000.0001) %MON thSI_IceH_ave_S              =   0.0000000000000E+00
(PID.TID 0000.0001) %MON thSI_IceH_ave_N              =   1.0448213544562E-01
(PID.TID 0000.0001) %MON thSI_IceH_max_S              =   0.0000000000000E+00
(PID.TID 0000.0001) %MON thSI_IceH_max_N              =   1.2066856855584E-01
(PID.TID 0000.0001) %MON thSI_SnwH_ave_G              =   0.0000000000000E+00
(PID.TID 0000.0001) %MON thSI_SnwH_ave_S              =   0.0000000000000E+00
(PID.TID 0000.0001) %MON thSI_SnwH_ave_N              =   0.0000000000000E+00
(PID.TID 0000.0001) %MON thSI_SnwH_max_S              =   0.0000000000000E+00
(PID.TID 0000.0001) %MON thSI_SnwH_max_N              =   0.0000000000000E+00
(PID.TID 0000.0001) %MON thSI_Tsrf_ave_G              =  -5.8951265370756E+00
(PID.TID 0000.0001) %MON thSI_Tsrf_ave_S              =   0.0000000000000E+00
(PID.TID 0000.0001) %MON thSI_Tsrf_ave_N              =  -5.8951265370756E+00
(PID.TID 0000.0001) %MON thSI_Tsrf_min_S              =   0.0000000000000E+00
(PID.TID 0000.0001) %MON thSI_Tsrf_min_N              =  -6.2599377347284E+00
(PID.TID 0000.0001) %MON thSI_Tsrf_max_S              =   0.0000000000000E+00
(PID.TID 0000.0001) %MON thSI_Tsrf_max_N              =  -3.3738813326789E+00
(PID.TID 0000.0001) %MON thSI_Tic1_ave_G              =  -3.7556172419665E+00
(PID.TID 0000.0001) %MON thSI_Tic1_ave_S              =   0.0000000000000E+00
(PID.TID 0000.0001) %MON thSI_Tic1_ave_N              =  -3.7556172419665E+00
(PID.TID 0000.0001) %MON thSI_Tic1_min_S              =   0.0000000000000E+00
(PID.TID 0000.0001) %MON thSI_Tic1_min_N              =  -3.9232332014541E+00
(PID.TID 0000.0001) %MON thSI_Tic1_max_S              =   0.0000000000000E+00
(PID.TID 0000.0001) %MON thSI_Tic1_max_N              =  -2.9516214715060E+00
(PID.TID 0000.0001) %MON thSI_Tic2_ave_G              =  -2.1445577271984E+00
(PID.TID 0000.0001) %MON thSI_Tic2_ave_S              =   0.0000000000000E+00
(PID.TID 0000.0001) %MON thSI_Tic2_ave_N              =  -2.1445577271984E+00
(PID.TID 0000.0001) %MON thSI_Tic2_min_S              =   0.0000000000000E+00
(PID.TID 0000.0001) %MON thSI_Tic2_min_N              =  -2.4191575522983E+00
(PID.TID 0000.0001) %MON thSI_Tic2_max_S              =   0.0000000000000E+00
(PID.TID 0000.0001) %MON thSI_Tic2_max_N              =  -2.0825846589527E+00
(PID.TID 0000.0001) %MON thSI_TotEnerg_G              =  -3.5543712753774E+18
(PID.TID 0000.0001) // =======================================================
(PID.TID 0000.0001) // End MONITOR Therm.SeaIce statistics
(PID.TID 0000.0001) // =======================================================
 cg2d: Sum(rhs),rhsMax =  -3.91082721762359E-11  2.20978763089629E+04
(PID.TID 0000.0001)      cg2d_init_res =   1.96122728100640E+04
(PID.TID 0000.0001)      cg2d_iters(min,last) =      -1      16
(PID.TID 0000.0001)      cg2d_last_res =   7.89752081247853E-11
(PID.TID 0000.0001) // =======================================================
(PID.TID 0000.0001) // Begin MONITOR dynamic field statistics
(PID.TID 0000.0001) // =======================================================
(PID.TID 0000.0001) %MON time_tsnumber                =                     9
(PID.TID 0000.0001) %MON time_secondsf                =   4.0500000000000E+03
(PID.TID 0000.0001) %MON dynstat_eta_max              =   4.0104379621539E+03
(PID.TID 0000.0001) %MON dynstat_eta_min              =  -2.5308922574739E+03
(PID.TID 0000.0001) %MON dynstat_eta_mean             =   1.1497057912039E-14
(PID.TID 0000.0001) %MON dynstat_eta_sd               =   4.3500500065973E+02
(PID.TID 0000.0001) %MON dynstat_eta_del2             =   4.7265528672368E+00
(PID.TID 0000.0001) %MON dynstat_uvel_max             =   6.7804412064956E+00
(PID.TID 0000.0001) %MON dynstat_uvel_min             =  -7.7642913625291E+00
(PID.TID 0000.0001) %MON dynstat_uvel_mean            =  -6.9041877206681E-03
(PID.TID 0000.0001) %MON dynstat_uvel_sd              =   7.8637129852628E-01
(PID.TID 0000.0001) %MON dynstat_uvel_del2            =   1.1129691644241E-03
(PID.TID 0000.0001) %MON dynstat_vvel_max             =   8.3411340554924E+00
(PID.TID 0000.0001) %MON dynstat_vvel_min             =  -8.4431609016249E+00
(PID.TID 0000.0001) %MON dynstat_vvel_mean            =   1.2090465670676E-02
(PID.TID 0000.0001) %MON dynstat_vvel_sd              =   8.1938272721805E-01
(PID.TID 0000.0001) %MON dynstat_vvel_del2            =   1.2196921181171E-03
(PID.TID 0000.0001) %MON dynstat_wvel_max             =   1.4136034199558E-01
(PID.TID 0000.0001) %MON dynstat_wvel_min             =  -3.4715858181243E-01
(PID.TID 0000.0001) %MON dynstat_wvel_mean            =  -1.7926568376712E-03
(PID.TID 0000.0001) %MON dynstat_wvel_sd              =   1.4201418168684E-02
(PID.TID 0000.0001) %MON dynstat_wvel_del2            =   1.2504463197551E-04
(PID.TID 0000.0001) %MON dynstat_theta_max            =   4.3757206998737E+02
(PID.TID 0000.0001) %MON dynstat_theta_min            =   2.8738036415571E+02
(PID.TID 0000.0001) %MON dynstat_theta_mean           =   3.3171244587234E+02
(PID.TID 0000.0001) %MON dynstat_theta_sd             =   4.7423105511141E+01
(PID.TID 0000.0001) %MON dynstat_theta_del2           =   7.9336326745776E-04
(PID.TID 0000.0001) %MON dynstat_salt_max             =   2.8574339891687E+00
(PID.TID 0000.0001) %MON dynstat_salt_min             =  -1.7152643733463E-03
(PID.TID 0000.0001) %MON dynstat_salt_mean            =   3.4490948361056E-02
(PID.TID 0000.0001) %MON dynstat_salt_sd              =   1.4657367577347E-01
(PID.TID 0000.0001) %MON dynstat_salt_del2            =   6.0402765980712E-04
(PID.TID 0000.0001) %MON advcfl_uvel_max              =   1.1043532396768E-02
(PID.TID 0000.0001) %MON advcfl_vvel_max              =   1.1961166184499E-02
(PID.TID 0000.0001) %MON advcfl_wvel_max              =   5.6807767932944E-03
(PID.TID 0000.0001) %MON advcfl_W_hf_max              =   1.1926748285216E-02
(PID.TID 0000.0001) %MON am_eta_mean                  =  -1.8787810627289E+09
(PID.TID 0000.0001) %MON am_uZo_mean                  =   1.8638368543494E+09
(PID.TID 0000.0001) %MON am_tot_mean                  =  -1.4944208379535E+07
(PID.TID 0000.0001) %MON pe_b_mean                    =  -9.9446273292658E-01
(PID.TID 0000.0001) %MON ke_max                       =   3.7632650047088E+01
(PID.TID 0000.0001) %MON ke_mean                      =   6.4118431012879E-01
(PID.TID 0000.0001) %MON ke_vol                       =   4.9523908919847E+19
(PID.TID 0000.0001) %MON vort_r_min                   =  -2.7087219434145E-05
(PID.TID 0000.0001) %MON vort_r_max                   =   1.9560286902831E-05
(PID.TID 0000.0001) %MON vort_a_mean                  =   6.7242814765415E-08
(PID.TID 0000.0001) %MON vort_a_sd                    =   8.3949827268310E-05
(PID.TID 0000.0001) %MON vort_p_mean                  =   6.8939449595872E-08
(PID.TID 0000.0001) %MON vort_p_sd                    =   9.1828948122332E-05
(PID.TID 0000.0001) %MON surfExpan_theta_mean         =   1.7451700446158E-01
(PID.TID 0000.0001) %MON surfExpan_salt_mean          =  -8.0158555180065E-05
(PID.TID 0000.0001) %MON surfExpan_Heat_mean          =  -1.4537500495572E+01
(PID.TID 0000.0001) %MON En_Budget_T2PE_mean          =   2.7369492469108E+01
(PID.TID 0000.0001) // =======================================================
(PID.TID 0000.0001) // End MONITOR dynamic field statistics
(PID.TID 0000.0001) // =======================================================
(PID.TID 0000.0001) // =======================================================
(PID.TID 0000.0001) // Begin MONITOR Land statistics
(PID.TID 0000.0001) // =======================================================
(PID.TID 0000.0001) %MON land_time_sec                =   4.0500000000000E+03
(PID.TID 0000.0001) %MON land_SnwH_ave_G              =   1.5323938623299E-01
(PID.TID 0000.0001) %MON land_SnwH_ave_S              =   5.5905548157645E-01
(PID.TID 0000.0001) %MON land_SnwH_ave_T              =   0.0000000000000E+00
(PID.TID 0000.0001) %MON land_SnwH_ave_N              =   1.2392387301316E-01
(PID.TID 0000.0001) %MON land_SnwH_max_S              =   9.9999536791351E-01
(PID.TID 0000.0001) %MON land_SnwH_max_T              =   0.0000000000000E+00
(PID.TID 0000.0001) %MON land_SnwH_max_N              =   9.9999936231850E-01
(PID.TID 0000.0001) %MON land_Tsrf_ave_G              =  -6.8865385954314E+00
(PID.TID 0000.0001) %MON land_Tsrf_ave_S              =  -6.2821748537223E+00
(PID.TID 0000.0001) %MON land_Tsrf_ave_T              =   1.3512404299145E+01
(PID.TID 0000.0001) %MON land_Tsrf_ave_N              =  -2.0704404653147E+01
(PID.TID 0000.0001) %MON land_Tsrf_min_S              =  -3.4166884354756E+01
(PID.TID 0000.0001) %MON land_Tsrf_min_T              =  -5.9828287995330E+00
(PID.TID 0000.0001) %MON land_Tsrf_min_N              =  -5.1858869204549E+01
(PID.TID 0000.0001) %MON land_Tsrf_max_S              =   2.4537614556052E+01
(PID.TID 0000.0001) %MON land_Tsrf_max_T              =   2.6515636971189E+01
(PID.TID 0000.0001) %MON land_Tsrf_max_N              =   1.1592424463114E+01
(PID.TID 0000.0001) %MON land_Tgr1_ave_G              =  -5.5885887121229E+00
(PID.TID 0000.0001) %MON land_Tgr1_ave_S              =  -5.9599126296770E+00
(PID.TID 0000.0001) %MON land_Tgr1_ave_T              =   1.3512404299145E+01
(PID.TID 0000.0001) %MON land_Tgr1_ave_N              =  -1.8223214878112E+01
(PID.TID 0000.0001) %MON land_Tgr1_min_S              =  -3.9095527971263E+01
(PID.TID 0000.0001) %MON land_Tgr1_min_T              =  -5.9828287995330E+00
(PID.TID 0000.0001) %MON land_Tgr1_min_N              =  -5.4897482831859E+01
(PID.TID 0000.0001) %MON land_Tgr1_max_S              =   2.4537614556052E+01
(PID.TID 0000.0001) %MON land_Tgr1_max_T              =   2.6515636971189E+01
(PID.TID 0000.0001) %MON land_Tgr1_max_N              =   1.1592424463114E+01
(PID.TID 0000.0001) %MON land_Tgr2_ave_G              =   4.2063940334329E+00
(PID.TID 0000.0001) %MON land_Tgr2_ave_S              =  -1.8729849966877E+01
(PID.TID 0000.0001) %MON land_Tgr2_ave_T              =   2.2012196044398E+01
(PID.TID 0000.0001) %MON land_Tgr2_ave_N              =  -2.4341908884808E-01
(PID.TID 0000.0001) %MON land_Tgr2_min_S              =  -6.4758392611809E+01
(PID.TID 0000.0001) %MON land_Tgr2_min_T              =  -9.7047815517587E+00
(PID.TID 0000.0001) %MON land_Tgr2_min_N              =  -4.0195783144494E+01
(PID.TID 0000.0001) %MON land_Tgr2_max_S              =   2.3360640047346E+01
(PID.TID 0000.0001) %MON land_Tgr2_max_T              =   3.1358191884195E+01
(PID.TID 0000.0001) %MON land_Tgr2_max_N              =   2.9829344662537E+01
(PID.TID 0000.0001) %MON land_TotEnerg_G              =  -6.3081263915803E+21
(PID.TID 0000.0001) %MON land_TotEnerg_S              =  -4.9984183676359E+21
(PID.TID 0000.0001) %MON land_TotEnerg_T              =   7.3057657298923E+21
(PID.TID 0000.0001) %MON land_TotEnerg_N              =  -8.6154737538366E+21
(PID.TID 0000.0001) %MON land_grdW_ave_G              =   4.8691006586712E-01
(PID.TID 0000.0001) %MON land_grdW_ave_S              =   3.0866430711254E-01
(PID.TID 0000.0001) %MON land_grdW_ave_T              =   5.6456040451671E-01
(PID.TID 0000.0001) %MON land_grdW_ave_N              =   4.9287929144578E-01
(PID.TID 0000.0001) %MON land_grdW_min_S              =   2.6225493413901E-02
(PID.TID 0000.0001) %MON land_grdW_min_T              =   0.0000000000000E+00
(PID.TID 0000.0001) %MON land_grdW_min_N              =   0.0000000000000E+00
(PID.TID 0000.0001) // =======================================================
(PID.TID 0000.0001) // End MONITOR Land statistics
(PID.TID 0000.0001) // =======================================================
(PID.TID 0000.0001) // =======================================================
(PID.TID 0000.0001) // Begin MONITOR Therm.SeaIce statistics
(PID.TID 0000.0001) // =======================================================
(PID.TID 0000.0001) %MON thSI_time_sec                =   4.0500000000000E+03
(PID.TID 0000.0001) %MON thSI_Ice_Area_G              =   1.2339544750260E+11
(PID.TID 0000.0001) %MON thSI_Ice_Area_S              =   0.0000000000000E+00
(PID.TID 0000.0001) %MON thSI_Ice_Area_N              =   1.2339544750260E+11
(PID.TID 0000.0001) %MON thSI_IceH_ave_G              =   1.0650679708798E-01
(PID.TID 0000.0001) %MON thSI_IceH_ave_S              =   0.0000000000000E+00
(PID.TID 0000.0001) %MON thSI_IceH_ave_N              =   1.0650679708798E-01
(PID.TID 0000.0001) %MON thSI_IceH_max_S              =   0.0000000000000E+00
(PID.TID 0000.0001) %MON thSI_IceH_max_N              =   1.2357418855958E-01
(PID.TID 0000.0001) %MON thSI_SnwH_ave_G              =   0.0000000000000E+00
(PID.TID 0000.0001) %MON thSI_SnwH_ave_S              =   0.0000000000000E+00
(PID.TID 0000.0001) %MON thSI_SnwH_ave_N              =   0.0000000000000E+00
(PID.TID 0000.0001) %MON thSI_SnwH_max_S              =   0.0000000000000E+00
(PID.TID 0000.0001) %MON thSI_SnwH_max_N              =   0.0000000000000E+00
(PID.TID 0000.0001) %MON thSI_Tsrf_ave_G              =  -6.1479053548723E+00
(PID.TID 0000.0001) %MON thSI_Tsrf_ave_S              =   0.0000000000000E+00
(PID.TID 0000.0001) %MON thSI_Tsrf_ave_N              =  -6.1479053548723E+00
(PID.TID 0000.0001) %MON thSI_Tsrf_min_S              =   0.0000000000000E+00
(PID.TID 0000.0001) %MON thSI_Tsrf_min_N              =  -6.5486777766420E+00
(PID.TID 0000.0001) %MON thSI_Tsrf_max_S              =   0.0000000000000E+00
(PID.TID 0000.0001) %MON thSI_Tsrf_max_N              =  -3.4014839682001E+00
(PID.TID 0000.0001) %MON thSI_Tic1_ave_G              =  -4.0295306247417E+00
(PID.TID 0000.0001) %MON thSI_Tic1_ave_S              =   0.0000000000000E+00
(PID.TID 0000.0001) %MON thSI_Tic1_ave_N              =  -4.0295306247417E+00
(PID.TID 0000.0001) %MON thSI_Tic1_min_S              =   0.0000000000000E+00
(PID.TID 0000.0001) %MON thSI_Tic1_min_N              =  -4.1084066287071E+00
(PID.TID 0000.0001) %MON thSI_Tic1_max_S              =   0.0000000000000E+00
(PID.TID 0000.0001) %MON thSI_Tic1_max_N              =  -2.9723335639241E+00
(PID.TID 0000.0001) %MON thSI_Tic2_ave_G              =  -2.2244064033200E+00
(PID.TID 0000.0001) %MON thSI_Tic2_ave_S              =   0.0000000000000E+00
(PID.TID 0000.0001) %MON thSI_Tic2_ave_N              =  -2.2244064033200E+00
(PID.TID 0000.0001) %MON thSI_Tic2_min_S              =   0.0000000000000E+00
(PID.TID 0000.0001) %MON thSI_Tic2_min_N              =  -2.4357004328881E+00
(PID.TID 0000.0001) %MON thSI_Tic2_max_S              =   0.0000000000000E+00
(PID.TID 0000.0001) %MON thSI_Tic2_max_N              =  -2.1129063304847E+00
(PID.TID 0000.0001) %MON thSI_TotEnerg_G              =  -4.0024089753706E+18
(PID.TID 0000.0001) // =======================================================
(PID.TID 0000.0001) // End MONITOR Therm.SeaIce statistics
(PID.TID 0000.0001) // =======================================================
 cg2d: Sum(rhs),rhsMax =  -1.00044417195022E-10  2.12744406571425E+04
(PID.TID 0000.0001)      cg2d_init_res =   1.88139106168761E+04
(PID.TID 0000.0001)      cg2d_iters(min,last) =      -1      16
(PID.TID 0000.0001)      cg2d_last_res =   8.16010782892232E-11
(PID.TID 0000.0001) // =======================================================
(PID.TID 0000.0001) // Begin MONITOR dynamic field statistics
(PID.TID 0000.0001) // =======================================================
(PID.TID 0000.0001) %MON time_tsnumber                =                    10
(PID.TID 0000.0001) %MON time_secondsf                =   4.5000000000000E+03
(PID.TID 0000.0001) %MON dynstat_eta_max              =   3.9164097072858E+03
(PID.TID 0000.0001) %MON dynstat_eta_min              =  -2.2941544235815E+03
(PID.TID 0000.0001) %MON dynstat_eta_mean             =   1.5563702850359E-15
(PID.TID 0000.0001) %MON dynstat_eta_sd               =   4.5919200738793E+02
(PID.TID 0000.0001) %MON dynstat_eta_del2             =   4.5936309335288E+00
(PID.TID 0000.0001) %MON dynstat_uvel_max             =   6.7832924242624E+00
(PID.TID 0000.0001) %MON dynstat_uvel_min             =  -7.2526748621565E+00
(PID.TID 0000.0001) %MON dynstat_uvel_mean            =  -7.5005869239888E-03
(PID.TID 0000.0001) %MON dynstat_uvel_sd              =   7.8914278869934E-01
(PID.TID 0000.0001) %MON dynstat_uvel_del2            =   1.0791224972563E-03
(PID.TID 0000.0001) %MON dynstat_vvel_max             =   8.5726315398125E+00
(PID.TID 0000.0001) %MON dynstat_vvel_min             =  -8.3947583656900E+00
(PID.TID 0000.0001) %MON dynstat_vvel_mean            =   1.3758693017101E-02
(PID.TID 0000.0001) %MON dynstat_vvel_sd              =   8.4040349704635E-01
(PID.TID 0000.0001) %MON dynstat_vvel_del2            =   1.2322009506893E-03
(PID.TID 0000.0001) %MON dynstat_wvel_max             =   1.6028250125284E-01
(PID.TID 0000.0001) %MON dynstat_wvel_min             =  -3.3691128455795E-01
(PID.TID 0000.0001) %MON dynstat_wvel_mean            =  -1.6233116222530E-03
(PID.TID 0000.0001) %MON dynstat_wvel_sd              =   1.3401384468855E-02
(PID.TID 0000.0001) %MON dynstat_wvel_del2            =   1.2163568792238E-04
(PID.TID 0000.0001) %MON dynstat_theta_max            =   4.3759298207530E+02
(PID.TID 0000.0001) %MON dynstat_theta_min            =   2.8713743654022E+02
(PID.TID 0000.0001) %MON dynstat_theta_mean           =   3.3171119541515E+02
(PID.TID 0000.0001) %MON dynstat_theta_sd             =   4.7424666603740E+01
(PID.TID 0000.0001) %MON dynstat_theta_del2           =   8.6340268467575E-04
(PID.TID 0000.0001) %MON dynstat_salt_max             =   3.0384432632512E+00
(PID.TID 0000.0001) %MON dynstat_salt_min             =  -1.8825956641818E-03
(PID.TID 0000.0001) %MON dynstat_salt_mean            =   3.8142646467725E-02
(PID.TID 0000.0001) %MON dynstat_salt_sd              =   1.6165087485175E-01
(PID.TID 0000.0001) %MON dynstat_salt_del2            =   6.4428778564337E-04
(PID.TID 0000.0001) %MON advcfl_uvel_max              =   1.0315835156573E-02
(PID.TID 0000.0001) %MON advcfl_vvel_max              =   1.2053161169639E-02
(PID.TID 0000.0001) %MON advcfl_wvel_max              =   5.5130937473118E-03
(PID.TID 0000.0001) %MON advcfl_W_hf_max              =   1.1219031812570E-02
(PID.TID 0000.0001) %MON am_eta_mean                  =  -2.3023953862801E+09
(PID.TID 0000.0001) %MON am_uZo_mean                  =   2.2905751524137E+09
(PID.TID 0000.0001) %MON am_tot_mean                  =  -1.1820233866393E+07
(PID.TID 0000.0001) %MON pe_b_mean                    =  -1.0337404934782E+00
(PID.TID 0000.0001) %MON ke_max                       =   3.6084650824352E+01
(PID.TID 0000.0001) %MON ke_mean                      =   6.6072288161981E-01
(PID.TID 0000.0001) %MON ke_vol                       =   4.9523908919847E+19
(PID.TID 0000.0001) %MON vort_r_min                   =  -2.9389959162117E-05
(PID.TID 0000.0001) %MON vort_r_max                   =   2.0135449872573E-05
(PID.TID 0000.0001) %MON vort_a_mean                  =   6.7242814765284E-08
(PID.TID 0000.0001) %MON vort_a_sd                    =   8.3952218880818E-05
(PID.TID 0000.0001) %MON vort_p_mean                  =   6.8939450229830E-08
(PID.TID 0000.0001) %MON vort_p_sd                    =   9.1849235991860E-05
(PID.TID 0000.0001) %MON surfExpan_theta_mean         =   1.5782972713966E-01
(PID.TID 0000.0001) %MON surfExpan_salt_mean          =  -1.0289150137216E-04
(PID.TID 0000.0001) %MON surfExpan_Heat_mean          =  -1.3212651538464E+01
(PID.TID 0000.0001) %MON En_Budget_T2PE_mean          =   2.4809595386382E+01
(PID.TID 0000.0001) // =======================================================
(PID.TID 0000.0001) // End MONITOR dynamic field statistics
(PID.TID 0000.0001) // =======================================================
(PID.TID 0000.0001) // =======================================================
(PID.TID 0000.0001) // Begin MONITOR Land statistics
(PID.TID 0000.0001) // =======================================================
(PID.TID 0000.0001) %MON land_time_sec                =   4.5000000000000E+03
(PID.TID 0000.0001) %MON land_SnwH_ave_G              =   1.5323834159267E-01
(PID.TID 0000.0001) %MON land_SnwH_ave_S              =   5.5905453316823E-01
(PID.TID 0000.0001) %MON land_SnwH_ave_T              =   0.0000000000000E+00
(PID.TID 0000.0001) %MON land_SnwH_ave_N              =   1.2392209957564E-01
(PID.TID 0000.0001) %MON land_SnwH_max_S              =   9.9999481079060E-01
(PID.TID 0000.0001) %MON land_SnwH_max_T              =   0.0000000000000E+00
(PID.TID 0000.0001) %MON land_SnwH_max_N              =   9.9999929756081E-01
(PID.TID 0000.0001) %MON land_Tsrf_ave_G              =  -7.0624668433390E+00
(PID.TID 0000.0001) %MON land_Tsrf_ave_S              =  -6.3986427039342E+00
(PID.TID 0000.0001) %MON land_Tsrf_ave_T              =   1.3119757277059E+01
(PID.TID 0000.0001) %MON land_Tsrf_ave_N              =  -2.0754903067963E+01
(PID.TID 0000.0001) %MON land_Tsrf_min_S              =  -3.4077244140719E+01
(PID.TID 0000.0001) %MON land_Tsrf_min_T              =  -5.7932437806643E+00
(PID.TID 0000.0001) %MON land_Tsrf_min_N              =  -5.1918771158459E+01
(PID.TID 0000.0001) %MON land_Tsrf_max_S              =   2.4006778434960E+01
(PID.TID 0000.0001) %MON land_Tsrf_max_T              =   2.5808533376908E+01
(PID.TID 0000.0001) %MON land_Tsrf_max_N              =   1.1321230315624E+01
(PID.TID 0000.0001) %MON land_Tgr1_ave_G              =  -5.7735886929983E+00
(PID.TID 0000.0001) %MON land_Tgr1_ave_S              =  -6.1146963332980E+00
(PID.TID 0000.0001) %MON land_Tgr1_ave_T              =   1.3119757277059E+01
(PID.TID 0000.0001) %MON land_Tgr1_ave_N              =  -1.8279356247892E+01
(PID.TID 0000.0001) %MON land_Tgr1_min_S              =  -3.9107013411544E+01
(PID.TID 0000.0001) %MON land_Tgr1_min_T              =  -5.7932437806643E+00
(PID.TID 0000.0001) %MON land_Tgr1_min_N              =  -5.4884557958497E+01
(PID.TID 0000.0001) %MON land_Tgr1_max_S              =   2.4006778434960E+01
(PID.TID 0000.0001) %MON land_Tgr1_max_T              =   2.5808533376908E+01
(PID.TID 0000.0001) %MON land_Tgr1_max_N              =   1.1321230315624E+01
(PID.TID 0000.0001) %MON land_Tgr2_ave_G              =   4.2062415830117E+00
(PID.TID 0000.0001) %MON land_Tgr2_ave_S              =  -1.8729639493524E+01
(PID.TID 0000.0001) %MON land_Tgr2_ave_T              =   2.2012049784722E+01
(PID.TID 0000.0001) %MON land_Tgr2_ave_N              =  -2.4369340352802E-01
(PID.TID 0000.0001) %MON land_Tgr2_min_S              =  -6.4757959961742E+01
(PID.TID 0000.0001) %MON land_Tgr2_min_T              =  -9.7047321275212E+00
(PID.TID 0000.0001) %MON land_Tgr2_min_N              =  -4.0196022272089E+01
(PID.TID 0000.0001) %MON land_Tgr2_max_S              =   2.3360643262540E+01
(PID.TID 0000.0001) %MON land_Tgr2_max_T              =   3.1357832004760E+01
(PID.TID 0000.0001) %MON land_Tgr2_max_N              =   2.9828917251925E+01
(PID.TID 0000.0001) %MON land_TotEnerg_G              =  -6.3129144951330E+21
(PID.TID 0000.0001) %MON land_TotEnerg_S              =  -4.9989310125802E+21
(PID.TID 0000.0001) %MON land_TotEnerg_T              =   7.3023458595117E+21
(PID.TID 0000.0001) %MON land_TotEnerg_N              =  -8.6163293420645E+21
(PID.TID 0000.0001) %MON land_grdW_ave_G              =   4.8689783295452E-01
(PID.TID 0000.0001) %MON land_grdW_ave_S              =   3.0865415414786E-01
(PID.TID 0000.0001) %MON land_grdW_ave_T              =   5.6452935591823E-01
(PID.TID 0000.0001) %MON land_grdW_ave_N              =   4.9287894837241E-01
(PID.TID 0000.0001) %MON land_grdW_min_S              =   2.6290104359824E-02
(PID.TID 0000.0001) %MON land_grdW_min_T              =   0.0000000000000E+00
(PID.TID 0000.0001) %MON land_grdW_min_N              =   0.0000000000000E+00
(PID.TID 0000.0001) // =======================================================
(PID.TID 0000.0001) // End MONITOR Land statistics
(PID.TID 0000.0001) // =======================================================
(PID.TID 0000.0001) // =======================================================
(PID.TID 0000.0001) // Begin MONITOR Therm.SeaIce statistics
(PID.TID 0000.0001) // =======================================================
(PID.TID 0000.0001) %MON thSI_time_sec                =   4.5000000000000E+03
(PID.TID 0000.0001) %MON thSI_Ice_Area_G              =   1.3449300551849E+11
(PID.TID 0000.0001) %MON thSI_Ice_Area_S              =   0.0000000000000E+00
(PID.TID 0000.0001) %MON thSI_Ice_Area_N              =   1.3449300551849E+11
(PID.TID 0000.0001) %MON thSI_IceH_ave_G              =   1.0852320842213E-01
(PID.TID 0000.0001) %MON thSI_IceH_ave_S              =   0.0000000000000E+00
(PID.TID 0000.0001) %MON thSI_IceH_ave_N              =   1.0852320842213E-01
(PID.TID 0000.0001) %MON thSI_IceH_max_S              =   0.0000000000000E+00
(PID.TID 0000.0001) %MON thSI_IceH_max_N              =   1.2646849402993E-01
(PID.TID 0000.0001) %MON thSI_SnwH_ave_G              =   0.0000000000000E+00
(PID.TID 0000.0001) %MON thSI_SnwH_ave_S              =   0.0000000000000E+00
(PID.TID 0000.0001) %MON thSI_SnwH_ave_N              =   0.0000000000000E+00
(PID.TID 0000.0001) %MON thSI_SnwH_max_S              =   0.0000000000000E+00
(PID.TID 0000.0001) %MON thSI_SnwH_max_N              =   0.0000000000000E+00
(PID.TID 0000.0001) %MON thSI_Tsrf_ave_G              =  -6.3841036950295E+00
(PID.TID 0000.0001) %MON thSI_Tsrf_ave_S              =   0.0000000000000E+00
(PID.TID 0000.0001) %MON thSI_Tsrf_ave_N              =  -6.3841036950295E+00
(PID.TID 0000.0001) %MON thSI_Tsrf_min_S              =   0.0000000000000E+00
(PID.TID 0000.0001) %MON thSI_Tsrf_min_N              =  -6.8190842951079E+00
(PID.TID 0000.0001) %MON thSI_Tsrf_max_S              =   0.0000000000000E+00
(PID.TID 0000.0001) %MON thSI_Tsrf_max_N              =  -3.4281389095835E+00
(PID.TID 0000.0001) %MON thSI_Tic1_ave_G              =  -4.2851663278882E+00
(PID.TID 0000.0001) %MON thSI_Tic1_ave_S              =   0.0000000000000E+00
(PID.TID 0000.0001) %MON thSI_Tic1_ave_N              =  -4.2851663278882E+00
(PID.TID 0000.0001) %MON thSI_Tic1_min_S              =   0.0000000000000E+00
(PID.TID 0000.0001) %MON thSI_Tic1_min_N              =  -4.3773198616145E+00
(PID.TID 0000.0001) %MON thSI_Tic1_max_S              =   0.0000000000000E+00
(PID.TID 0000.0001) %MON thSI_Tic1_max_N              =  -2.9922904665417E+00
(PID.TID 0000.0001) %MON thSI_Tic2_ave_G              =  -2.3011506160283E+00
(PID.TID 0000.0001) %MON thSI_Tic2_ave_S              =   0.0000000000000E+00
(PID.TID 0000.0001) %MON thSI_Tic2_ave_N              =  -2.3011506160283E+00
(PID.TID 0000.0001) %MON thSI_Tic2_min_S              =   0.0000000000000E+00
(PID.TID 0000.0001) %MON thSI_Tic2_min_N              =  -2.4478511832438E+00
(PID.TID 0000.0001) %MON thSI_Tic2_max_S              =   0.0000000000000E+00
(PID.TID 0000.0001) %MON thSI_Tic2_max_N              =  -2.1195219116179E+00
(PID.TID 0000.0001) %MON thSI_TotEnerg_G              =  -4.4511770037759E+18
(PID.TID 0000.0001) // =======================================================
(PID.TID 0000.0001) // End MONITOR Therm.SeaIce statistics
(PID.TID 0000.0001) // =======================================================
 cg2d: Sum(rhs),rhsMax =  -9.45874489843845E-11  2.03632535604861E+04
(PID.TID 0000.0001)      cg2d_init_res =   1.79001915949179E+04
(PID.TID 0000.0001)      cg2d_iters(min,last) =      -1      16
(PID.TID 0000.0001)      cg2d_last_res =   8.53803830301440E-11
(PID.TID 0000.0001) // =======================================================
(PID.TID 0000.0001) // Begin MONITOR dynamic field statistics
(PID.TID 0000.0001) // =======================================================
(PID.TID 0000.0001) %MON time_tsnumber                =                    11
(PID.TID 0000.0001) %MON time_secondsf                =   4.9500000000000E+03
(PID.TID 0000.0001) %MON dynstat_eta_max              =   3.8573838254354E+03
(PID.TID 0000.0001) %MON dynstat_eta_min              =  -2.0307315799057E+03
(PID.TID 0000.0001) %MON dynstat_eta_mean             =   1.6316785246344E-14
(PID.TID 0000.0001) %MON dynstat_eta_sd               =   4.8112915815359E+02
(PID.TID 0000.0001) %MON dynstat_eta_del2             =   4.5358269690644E+00
(PID.TID 0000.0001) %MON dynstat_uvel_max             =   6.7148687026464E+00
(PID.TID 0000.0001) %MON dynstat_uvel_min             =  -6.6710252178643E+00
(PID.TID 0000.0001) %MON dynstat_uvel_mean            =  -8.0704646765387E-03
(PID.TID 0000.0001) %MON dynstat_uvel_sd              =   7.8835055905023E-01
(PID.TID 0000.0001) %MON dynstat_uvel_del2            =   1.0472926571224E-03
(PID.TID 0000.0001) %MON dynstat_vvel_max             =   8.5034729048029E+00
(PID.TID 0000.0001) %MON dynstat_vvel_min             =  -8.1320250714705E+00
(PID.TID 0000.0001) %MON dynstat_vvel_mean            =   1.5445977534870E-02
(PID.TID 0000.0001) %MON dynstat_vvel_sd              =   8.5162606390386E-01
(PID.TID 0000.0001) %MON dynstat_vvel_del2            =   1.2140718238597E-03
(PID.TID 0000.0001) %MON dynstat_wvel_max             =   1.7165563604398E-01
(PID.TID 0000.0001) %MON dynstat_wvel_min             =  -3.2168818178837E-01
(PID.TID 0000.0001) %MON dynstat_wvel_mean            =  -1.4607331651794E-03
(PID.TID 0000.0001) %MON dynstat_wvel_sd              =   1.2570419475078E-02
(PID.TID 0000.0001) %MON dynstat_wvel_del2            =   1.1671576987823E-04
(PID.TID 0000.0001) %MON dynstat_theta_max            =   4.3764929116699E+02
(PID.TID 0000.0001) %MON dynstat_theta_min            =   2.8689478478140E+02
(PID.TID 0000.0001) %MON dynstat_theta_mean           =   3.3170985095505E+02
(PID.TID 0000.0001) %MON dynstat_theta_sd             =   4.7426305228425E+01
(PID.TID 0000.0001) %MON dynstat_theta_del2           =   9.3635244149371E-04
(PID.TID 0000.0001) %MON dynstat_salt_max             =   3.2032726668749E+00
(PID.TID 0000.0001) %MON dynstat_salt_min             =  -2.2319152683986E-03
(PID.TID 0000.0001) %MON dynstat_salt_mean            =   4.1767535019383E-02
(PID.TID 0000.0001) %MON dynstat_salt_sd              =   1.7636819301545E-01
(PID.TID 0000.0001) %MON dynstat_salt_del2            =   6.8223337786700E-04
(PID.TID 0000.0001) %MON advcfl_uvel_max              =   9.5929478212062E-03
(PID.TID 0000.0001) %MON advcfl_vvel_max              =   1.1955923796241E-02
(PID.TID 0000.0001) %MON advcfl_wvel_max              =   5.2639884292642E-03
(PID.TID 0000.0001) %MON advcfl_W_hf_max              =   1.0341138821537E-02
(PID.TID 0000.0001) %MON am_eta_mean                  =  -2.7628076277601E+09
(PID.TID 0000.0001) %MON am_uZo_mean                  =   2.7526117636354E+09
(PID.TID 0000.0001) %MON am_tot_mean                  =  -1.0195864124751E+07
(PID.TID 0000.0001) %MON pe_b_mean                    =  -1.0604425071434E+00
(PID.TID 0000.0001) %MON ke_max                       =   3.7018356332049E+01
(PID.TID 0000.0001) %MON ke_mean                      =   6.6956864210909E-01
(PID.TID 0000.0001) %MON ke_vol                       =   4.9523908919847E+19
(PID.TID 0000.0001) %MON vort_r_min                   =  -3.1509739288878E-05
(PID.TID 0000.0001) %MON vort_r_max                   =   1.9916608952530E-05
(PID.TID 0000.0001) %MON vort_a_mean                  =   6.7242814765246E-08
(PID.TID 0000.0001) %MON vort_a_sd                    =   8.3954677908550E-05
(PID.TID 0000.0001) %MON vort_p_mean                  =   6.8939451133952E-08
(PID.TID 0000.0001) %MON vort_p_sd                    =   9.1866537537364E-05
(PID.TID 0000.0001) %MON surfExpan_theta_mean         =   1.4164366008960E-01
(PID.TID 0000.0001) %MON surfExpan_salt_mean          =  -1.2831563099821E-04
(PID.TID 0000.0001) %MON surfExpan_Heat_mean          =  -1.1928707281310E+01
(PID.TID 0000.0001) %MON En_Budget_T2PE_mean          =   2.2332339473463E+01
(PID.TID 0000.0001) // =======================================================
(PID.TID 0000.0001) // End MONITOR dynamic field statistics
(PID.TID 0000.0001) // =======================================================
(PID.TID 0000.0001) // =======================================================
(PID.TID 0000.0001) // Begin MONITOR Land statistics
(PID.TID 0000.0001) // =======================================================
(PID.TID 0000.0001) %MON land_time_sec                =   4.9500000000000E+03
(PID.TID 0000.0001) %MON land_SnwH_ave_G              =   1.5323731481382E-01
(PID.TID 0000.0001) %MON land_SnwH_ave_S              =   5.5905358620016E-01
(PID.TID 0000.0001) %MON land_SnwH_ave_T              =   0.0000000000000E+00
(PID.TID 0000.0001) %MON land_SnwH_ave_N              =   1.2392036125394E-01
(PID.TID 0000.0001) %MON land_SnwH_max_S              =   9.9999425157213E-01
(PID.TID 0000.0001) %MON land_SnwH_max_T              =   0.0000000000000E+00
(PID.TID 0000.0001) %MON land_SnwH_max_N              =   9.9999923292856E-01
(PID.TID 0000.0001) %MON land_Tsrf_ave_G              =  -7.2242470267212E+00
(PID.TID 0000.0001) %MON land_Tsrf_ave_S              =  -6.5232376599852E+00
(PID.TID 0000.0001) %MON land_Tsrf_ave_T              =   1.2767182155297E+01
(PID.TID 0000.0001) %MON land_Tsrf_ave_N              =  -2.0801338663852E+01
(PID.TID 0000.0001) %MON land_Tsrf_min_S              =  -3.4024023903934E+01
(PID.TID 0000.0001) %MON land_Tsrf_min_T              =  -5.6101166401130E+00
(PID.TID 0000.0001) %MON land_Tsrf_min_N              =  -5.1931289581288E+01
(PID.TID 0000.0001) %MON land_Tsrf_max_S              =   2.3531940569398E+01
(PID.TID 0000.0001) %MON land_Tsrf_max_T              =   2.5168898968937E+01
(PID.TID 0000.0001) %MON land_Tsrf_max_N              =   1.1060709027528E+01
(PID.TID 0000.0001) %MON land_Tgr1_ave_G              =  -5.9411257371836E+00
(PID.TID 0000.0001) %MON land_Tgr1_ave_S              =  -6.2530402926977E+00
(PID.TID 0000.0001) %MON land_Tgr1_ave_T              =   1.2767182155297E+01
(PID.TID 0000.0001) %MON land_Tgr1_ave_N              =  -1.8332800364577E+01
(PID.TID 0000.0001) %MON land_Tgr1_min_S              =  -3.9118346736672E+01
(PID.TID 0000.0001) %MON land_Tgr1_min_T              =  -5.6101166401130E+00
(PID.TID 0000.0001) %MON land_Tgr1_min_N              =  -5.4871666620014E+01
(PID.TID 0000.0001) %MON land_Tgr1_max_S              =   2.3531940569398E+01
(PID.TID 0000.0001) %MON land_Tgr1_max_T              =   2.5168898968937E+01
(PID.TID 0000.0001) %MON land_Tgr1_max_N              =   1.1060709027528E+01
(PID.TID 0000.0001) %MON land_Tgr2_ave_G              =   4.2060864427712E+00
(PID.TID 0000.0001) %MON land_Tgr2_ave_S              =  -1.8729431218919E+01
(PID.TID 0000.0001) %MON land_Tgr2_ave_T              =   2.2011898011448E+01
(PID.TID 0000.0001) %MON land_Tgr2_ave_N              =  -2.4396868169146E-01
(PID.TID 0000.0001) %MON land_Tgr2_min_S              =  -6.4757527529482E+01
(PID.TID 0000.0001) %MON land_Tgr2_min_T              =  -9.7046803900706E+00
(PID.TID 0000.0001) %MON land_Tgr2_min_N              =  -4.0196261153921E+01
(PID.TID 0000.0001) %MON land_Tgr2_max_S              =   2.3360637952385E+01
(PID.TID 0000.0001) %MON land_Tgr2_max_T              =   3.1357464557199E+01
(PID.TID 0000.0001) %MON land_Tgr2_max_N              =   2.9828481407710E+01
(PID.TID 0000.0001) %MON land_TotEnerg_G              =  -6.3172700958877E+21
(PID.TID 0000.0001) %MON land_TotEnerg_S              =  -4.9993867611485E+21
(PID.TID 0000.0001) %MON land_TotEnerg_T              =   7.2992784368097E+21
(PID.TID 0000.0001) %MON land_TotEnerg_N              =  -8.6171617715489E+21
(PID.TID 0000.0001) %MON land_grdW_ave_G              =   4.8688615825497E-01
(PID.TID 0000.0001) %MON land_grdW_ave_S              =   3.0864428369334E-01
(PID.TID 0000.0001) %MON land_grdW_ave_T              =   5.6449983299024E-01
(PID.TID 0000.0001) %MON land_grdW_ave_N              =   4.9287860690882E-01
(PID.TID 0000.0001) %MON land_grdW_min_S              =   2.6358457111314E-02
(PID.TID 0000.0001) %MON land_grdW_min_T              =   0.0000000000000E+00
(PID.TID 0000.0001) %MON land_grdW_min_N              =   0.0000000000000E+00
(PID.TID 0000.0001) // =======================================================
(PID.TID 0000.0001) // End MONITOR Land statistics
(PID.TID 0000.0001) // =======================================================
(PID.TID 0000.0001) // =======================================================
(PID.TID 0000.0001) // Begin MONITOR Therm.SeaIce statistics
(PID.TID 0000.0001) // =======================================================
(PID.TID 0000.0001) %MON thSI_time_sec                =   4.9500000000000E+03
(PID.TID 0000.0001) %MON thSI_Ice_Area_G              =   1.4519930234311E+11
(PID.TID 0000.0001) %MON thSI_Ice_Area_S              =   0.0000000000000E+00
(PID.TID 0000.0001) %MON thSI_Ice_Area_N              =   1.4519930234311E+11
(PID.TID 0000.0001) %MON thSI_IceH_ave_G              =   1.1053150758331E-01
(PID.TID 0000.0001) %MON thSI_IceH_ave_S              =   0.0000000000000E+00
(PID.TID 0000.0001) %MON thSI_IceH_ave_N              =   1.1053150758331E-01
(PID.TID 0000.0001) %MON thSI_IceH_max_S              =   0.0000000000000E+00
(PID.TID 0000.0001) %MON thSI_IceH_max_N              =   1.2935100136130E-01
(PID.TID 0000.0001) %MON thSI_SnwH_ave_G              =   0.0000000000000E+00
(PID.TID 0000.0001) %MON thSI_SnwH_ave_S              =   0.0000000000000E+00
(PID.TID 0000.0001) %MON thSI_SnwH_ave_N              =   0.0000000000000E+00
(PID.TID 0000.0001) %MON thSI_SnwH_max_S              =   0.0000000000000E+00
(PID.TID 0000.0001) %MON thSI_SnwH_max_N              =   0.0000000000000E+00
(PID.TID 0000.0001) %MON thSI_Tsrf_ave_G              =  -6.6038284945802E+00
(PID.TID 0000.0001) %MON thSI_Tsrf_ave_S              =   0.0000000000000E+00
(PID.TID 0000.0001) %MON thSI_Tsrf_ave_N              =  -6.6038284945802E+00
(PID.TID 0000.0001) %MON thSI_Tsrf_min_S              =   0.0000000000000E+00
(PID.TID 0000.0001) %MON thSI_Tsrf_min_N              =  -7.0713199792949E+00
(PID.TID 0000.0001) %MON thSI_Tsrf_max_S              =   0.0000000000000E+00
(PID.TID 0000.0001) %MON thSI_Tsrf_max_N              =  -3.4542421379067E+00
(PID.TID 0000.0001) %MON thSI_Tic1_ave_G              =  -4.5222872368288E+00
(PID.TID 0000.0001) %MON thSI_Tic1_ave_S              =   0.0000000000000E+00
(PID.TID 0000.0001) %MON thSI_Tic1_ave_N              =  -4.5222872368288E+00
(PID.TID 0000.0001) %MON thSI_Tic1_min_S              =   0.0000000000000E+00
(PID.TID 0000.0001) %MON thSI_Tic1_min_N              =  -4.6268163884401E+00
(PID.TID 0000.0001) %MON thSI_Tic1_max_S              =   0.0000000000000E+00
(PID.TID 0000.0001) %MON thSI_Tic1_max_N              =  -3.0118091597325E+00
(PID.TID 0000.0001) %MON thSI_Tic2_ave_G              =  -2.3740700645658E+00
(PID.TID 0000.0001) %MON thSI_Tic2_ave_S              =   0.0000000000000E+00
(PID.TID 0000.0001) %MON thSI_Tic2_ave_N              =  -2.3740700645658E+00
(PID.TID 0000.0001) %MON thSI_Tic2_min_S              =   0.0000000000000E+00
(PID.TID 0000.0001) %MON thSI_Tic2_min_N              =  -2.4574195876235E+00
(PID.TID 0000.0001) %MON thSI_Tic2_max_S              =   0.0000000000000E+00
(PID.TID 0000.0001) %MON thSI_Tic2_max_N              =  -2.1259801794365E+00
(PID.TID 0000.0001) %MON thSI_TotEnerg_G              =  -4.9006257444002E+18
(PID.TID 0000.0001) // =======================================================
(PID.TID 0000.0001) // End MONITOR Therm.SeaIce statistics
(PID.TID 0000.0001) // =======================================================
 cg2d: Sum(rhs),rhsMax =   2.45563569478691E-10  2.18518243613933E+04
(PID.TID 0000.0001)      cg2d_init_res =   1.68448478617770E+04
(PID.TID 0000.0001)      cg2d_iters(min,last) =      -1      16
(PID.TID 0000.0001)      cg2d_last_res =   9.07520727890215E-11
(PID.TID 0000.0001) // =======================================================
(PID.TID 0000.0001) // Begin MONITOR dynamic field statistics
(PID.TID 0000.0001) // =======================================================
(PID.TID 0000.0001) %MON time_tsnumber                =                    12
(PID.TID 0000.0001) %MON time_secondsf                =   5.4000000000000E+03
(PID.TID 0000.0001) %MON dynstat_eta_max              =   4.1645675670868E+03
(PID.TID 0000.0001) %MON dynstat_eta_min              =  -1.8280317926549E+03
(PID.TID 0000.0001) %MON dynstat_eta_mean             =   1.1497057912039E-14
(PID.TID 0000.0001) %MON dynstat_eta_sd               =   5.0082839193847E+02
(PID.TID 0000.0001) %MON dynstat_eta_del2             =   4.5218979245200E+00
(PID.TID 0000.0001) %MON dynstat_uvel_max             =   6.4419864555170E+00
(PID.TID 0000.0001) %MON dynstat_uvel_min             =  -6.1742408355762E+00
(PID.TID 0000.0001) %MON dynstat_uvel_mean            =  -8.5990187833728E-03
(PID.TID 0000.0001) %MON dynstat_uvel_sd              =   7.8618154681602E-01
(PID.TID 0000.0001) %MON dynstat_uvel_del2            =   1.0171803431239E-03
(PID.TID 0000.0001) %MON dynstat_vvel_max             =   8.1701295889732E+00
(PID.TID 0000.0001) %MON dynstat_vvel_min             =  -8.0428115611917E+00
(PID.TID 0000.0001) %MON dynstat_vvel_mean            =   1.7135345200436E-02
(PID.TID 0000.0001) %MON dynstat_vvel_sd              =   8.5439744950362E-01
(PID.TID 0000.0001) %MON dynstat_vvel_del2            =   1.1707551267642E-03
(PID.TID 0000.0001) %MON dynstat_wvel_max             =   1.6288780794405E-01
(PID.TID 0000.0001) %MON dynstat_wvel_min             =  -3.0070576939594E-01
(PID.TID 0000.0001) %MON dynstat_wvel_mean            =  -1.3010123037951E-03
(PID.TID 0000.0001) %MON dynstat_wvel_sd              =   1.1674708872216E-02
(PID.TID 0000.0001) %MON dynstat_wvel_del2            =   1.1031728689374E-04
(PID.TID 0000.0001) %MON dynstat_theta_max            =   4.3769977962465E+02
(PID.TID 0000.0001) %MON dynstat_theta_min            =   2.8665297532942E+02
(PID.TID 0000.0001) %MON dynstat_theta_mean           =   3.3170842757843E+02
(PID.TID 0000.0001) %MON dynstat_theta_sd             =   4.7428009295889E+01
(PID.TID 0000.0001) %MON dynstat_theta_del2           =   1.0100947749165E-03
(PID.TID 0000.0001) %MON dynstat_salt_max             =   3.3536926876072E+00
(PID.TID 0000.0001) %MON dynstat_salt_min             =  -1.9514566085793E-03
(PID.TID 0000.0001) %MON dynstat_salt_mean            =   4.5367187060698E-02
(PID.TID 0000.0001) %MON dynstat_salt_sd              =   1.9066422410788E-01
(PID.TID 0000.0001) %MON dynstat_salt_del2            =   7.1799827928177E-04
(PID.TID 0000.0001) %MON advcfl_uvel_max              =   9.0425162134505E-03
(PID.TID 0000.0001) %MON advcfl_vvel_max              =   1.1537437158987E-02
(PID.TID 0000.0001) %MON advcfl_wvel_max              =   4.9206398628427E-03
(PID.TID 0000.0001) %MON advcfl_W_hf_max              =   9.3384302340605E-03
(PID.TID 0000.0001) %MON am_eta_mean                  =  -3.2575960828092E+09
(PID.TID 0000.0001) %MON am_uZo_mean                  =   3.2473717292414E+09
(PID.TID 0000.0001) %MON am_tot_mean                  =  -1.0224353567822E+07
(PID.TID 0000.0001) %MON pe_b_mean                    =  -1.0773066194652E+00
(PID.TID 0000.0001) %MON ke_max                       =   3.6791396671397E+01
(PID.TID 0000.0001) %MON ke_mean                      =   6.7025171404592E-01
(PID.TID 0000.0001) %MON ke_vol                       =   4.9523908919847E+19
(PID.TID 0000.0001) %MON vort_r_min                   =  -3.2209367159180E-05
(PID.TID 0000.0001) %MON vort_r_max                   =   1.9052975459057E-05
(PID.TID 0000.0001) %MON vort_a_mean                  =   6.7242814765286E-08
(PID.TID 0000.0001) %MON vort_a_sd                    =   8.3957188500108E-05
(PID.TID 0000.0001) %MON vort_p_mean                  =   6.8939452290114E-08
(PID.TID 0000.0001) %MON vort_p_sd                    =   9.1881012207296E-05
(PID.TID 0000.0001) %MON surfExpan_theta_mean         =   1.2562576417257E-01
(PID.TID 0000.0001) %MON surfExpan_salt_mean          =  -1.5647714585622E-04
(PID.TID 0000.0001) %MON surfExpan_Heat_mean          =  -1.0656726329315E+01
(PID.TID 0000.0001) %MON En_Budget_T2PE_mean          =   1.9883070183842E+01
(PID.TID 0000.0001) // =======================================================
(PID.TID 0000.0001) // End MONITOR dynamic field statistics
(PID.TID 0000.0001) // =======================================================
(PID.TID 0000.0001) // =======================================================
(PID.TID 0000.0001) // Begin MONITOR Land statistics
(PID.TID 0000.0001) // =======================================================
(PID.TID 0000.0001) %MON land_time_sec                =   5.4000000000000E+03
(PID.TID 0000.0001) %MON land_SnwH_ave_G              =   1.5323630554573E-01
(PID.TID 0000.0001) %MON land_SnwH_ave_S              =   5.5905264684567E-01
(PID.TID 0000.0001) %MON land_SnwH_ave_T              =   0.0000000000000E+00
(PID.TID 0000.0001) %MON land_SnwH_ave_N              =   1.2391865534675E-01
(PID.TID 0000.0001) %MON land_SnwH_max_S              =   9.9999369401077E-01
(PID.TID 0000.0001) %MON land_SnwH_max_T              =   0.0000000000000E+00
(PID.TID 0000.0001) %MON land_SnwH_max_N              =   9.9999916835612E-01
(PID.TID 0000.0001) %MON land_Tsrf_ave_G              =  -7.3734992733656E+00
(PID.TID 0000.0001) %MON land_Tsrf_ave_S              =  -6.6526465832139E+00
(PID.TID 0000.0001) %MON land_Tsrf_ave_T              =   1.2450658531765E+01
(PID.TID 0000.0001) %MON land_Tsrf_ave_N              =  -2.0845329057586E+01
(PID.TID 0000.0001) %MON land_Tsrf_min_S              =  -3.4000916958336E+01
(PID.TID 0000.0001) %MON land_Tsrf_min_T              =  -5.4331345826127E+00
(PID.TID 0000.0001) %MON land_Tsrf_min_N              =  -5.1938913594732E+01
(PID.TID 0000.0001) %MON land_Tsrf_max_S              =   2.3107220629259E+01
(PID.TID 0000.0001) %MON land_Tsrf_max_T              =   2.4590134532320E+01
(PID.TID 0000.0001) %MON land_Tsrf_max_N              =   1.0810880884199E+01
(PID.TID 0000.0001) %MON land_Tgr1_ave_G              =  -6.0930995208601E+00
(PID.TID 0000.0001) %MON land_Tgr1_ave_S              =  -6.3767636221021E+00
(PID.TID 0000.0001) %MON land_Tgr1_ave_T              =   1.2450658531765E+01
(PID.TID 0000.0001) %MON land_Tgr1_ave_N              =  -1.8384056879759E+01
(PID.TID 0000.0001) %MON land_Tgr1_min_S              =  -3.9129560797230E+01
(PID.TID 0000.0001) %MON land_Tgr1_min_T              =  -5.4331345826127E+00
(PID.TID 0000.0001) %MON land_Tgr1_min_N              =  -5.4858803995654E+01
(PID.TID 0000.0001) %MON land_Tgr1_max_S              =   2.3107220629259E+01
(PID.TID 0000.0001) %MON land_Tgr1_max_T              =   2.4590134532320E+01
(PID.TID 0000.0001) %MON land_Tgr1_max_N              =   1.0810880884199E+01
(PID.TID 0000.0001) %MON land_Tgr2_ave_G              =   4.2059288678218E+00
(PID.TID 0000.0001) %MON land_Tgr2_ave_S              =  -1.8729224909596E+01
(PID.TID 0000.0001) %MON land_Tgr2_ave_T              =   2.2011741306883E+01
(PID.TID 0000.0001) %MON land_Tgr2_ave_N              =  -2.4424487969850E-01
(PID.TID 0000.0001) %MON land_Tgr2_min_S              =  -6.4757095314302E+01
(PID.TID 0000.0001) %MON land_Tgr2_min_T              =  -9.7046264171059E+00
(PID.TID 0000.0001) %MON land_Tgr2_min_N              =  -4.0196499790212E+01
(PID.TID 0000.0001) %MON land_Tgr2_max_S              =   2.3360625001963E+01
(PID.TID 0000.0001) %MON land_Tgr2_max_T              =   3.1357090171245E+01
(PID.TID 0000.0001) %MON land_Tgr2_max_N              =   2.9828037412282E+01
(PID.TID 0000.0001) %MON land_TotEnerg_G              =  -6.3212367367621E+21
(PID.TID 0000.0001) %MON land_TotEnerg_S              =  -4.9997920155931E+21
(PID.TID 0000.0001) %MON land_TotEnerg_T              =   7.2965274965628E+21
(PID.TID 0000.0001) %MON land_TotEnerg_N              =  -8.6179722177318E+21
(PID.TID 0000.0001) %MON land_grdW_ave_G              =   4.8687499602595E-01
(PID.TID 0000.0001) %MON land_grdW_ave_S              =   3.0863466563957E-01
(PID.TID 0000.0001) %MON land_grdW_ave_T              =   5.6447171520688E-01
(PID.TID 0000.0001) %MON land_grdW_ave_N              =   4.9287826617929E-01
(PID.TID 0000.0001) %MON land_grdW_min_S              =   2.6430054498139E-02
(PID.TID 0000.0001) %MON land_grdW_min_T              =   0.0000000000000E+00
(PID.TID 0000.0001) %MON land_grdW_min_N              =   0.0000000000000E+00
(PID.TID 0000.0001) // =======================================================
(PID.TID 0000.0001) // End MONITOR Land statistics
(PID.TID 0000.0001) // =======================================================
(PID.TID 0000.0001) // =======================================================
(PID.TID 0000.0001) // Begin MONITOR Therm.SeaIce statistics
(PID.TID 0000.0001) // =======================================================
(PID.TID 0000.0001) %MON thSI_time_sec                =   5.4000000000000E+03
(PID.TID 0000.0001) %MON thSI_Ice_Area_G              =   1.5553921066612E+11
(PID.TID 0000.0001) %MON thSI_Ice_Area_S              =   0.0000000000000E+00
(PID.TID 0000.0001) %MON thSI_Ice_Area_N              =   1.5553921066612E+11
(PID.TID 0000.0001) %MON thSI_IceH_ave_G              =   1.1253168793118E-01
(PID.TID 0000.0001) %MON thSI_IceH_ave_S              =   0.0000000000000E+00
(PID.TID 0000.0001) %MON thSI_IceH_ave_N              =   1.1253168793118E-01
(PID.TID 0000.0001) %MON thSI_IceH_max_S              =   0.0000000000000E+00
(PID.TID 0000.0001) %MON thSI_IceH_max_N              =   1.3222124245745E-01
(PID.TID 0000.0001) %MON thSI_SnwH_ave_G              =   0.0000000000000E+00
(PID.TID 0000.0001) %MON thSI_SnwH_ave_S              =   0.0000000000000E+00
(PID.TID 0000.0001) %MON thSI_SnwH_ave_N              =   0.0000000000000E+00
(PID.TID 0000.0001) %MON thSI_SnwH_max_S              =   0.0000000000000E+00
(PID.TID 0000.0001) %MON thSI_SnwH_max_N              =   0.0000000000000E+00
(PID.TID 0000.0001) %MON thSI_Tsrf_ave_G              =  -6.8075592511484E+00
(PID.TID 0000.0001) %MON thSI_Tsrf_ave_S              =   0.0000000000000E+00
(PID.TID 0000.0001) %MON thSI_Tsrf_ave_N              =  -6.8075592511484E+00
(PID.TID 0000.0001) %MON thSI_Tsrf_min_S              =   0.0000000000000E+00
(PID.TID 0000.0001) %MON thSI_Tsrf_min_N              =  -7.3059185967922E+00
(PID.TID 0000.0001) %MON thSI_Tsrf_max_S              =   0.0000000000000E+00
(PID.TID 0000.0001) %MON thSI_Tsrf_max_N              =  -3.4798848421946E+00
(PID.TID 0000.0001) %MON thSI_Tic1_ave_G              =  -4.7413604379182E+00
(PID.TID 0000.0001) %MON thSI_Tic1_ave_S              =   0.0000000000000E+00
(PID.TID 0000.0001) %MON thSI_Tic1_ave_N              =  -4.7413604379182E+00
(PID.TID 0000.0001) %MON thSI_Tic1_min_S              =   0.0000000000000E+00
(PID.TID 0000.0001) %MON thSI_Tic1_min_N              =  -4.8570742676724E+00
(PID.TID 0000.0001) %MON thSI_Tic1_max_S              =   0.0000000000000E+00
(PID.TID 0000.0001) %MON thSI_Tic1_max_N              =  -3.0309721753704E+00
(PID.TID 0000.0001) %MON thSI_Tic2_ave_G              =  -2.4427802373473E+00
(PID.TID 0000.0001) %MON thSI_Tic2_ave_S              =   0.0000000000000E+00
(PID.TID 0000.0001) %MON thSI_Tic2_ave_N              =  -2.4427802373473E+00
(PID.TID 0000.0001) %MON thSI_Tic2_min_S              =   0.0000000000000E+00
(PID.TID 0000.0001) %MON thSI_Tic2_min_N              =  -2.5239932737633E+00
(PID.TID 0000.0001) %MON thSI_Tic2_max_S              =   0.0000000000000E+00
(PID.TID 0000.0001) %MON thSI_Tic2_max_N              =  -2.1323181278352E+00
(PID.TID 0000.0001) %MON thSI_TotEnerg_G              =  -5.3507103009307E+18
(PID.TID 0000.0001) // =======================================================
(PID.TID 0000.0001) // End MONITOR Therm.SeaIce statistics
(PID.TID 0000.0001) // =======================================================
 cg2d: Sum(rhs),rhsMax =   3.71073838323355E-10  2.37812743458639E+04
(PID.TID 0000.0001)      cg2d_init_res =   1.57264970688916E+04
(PID.TID 0000.0001)      cg2d_iters(min,last) =      -1      16
(PID.TID 0000.0001)      cg2d_last_res =   9.42075904114397E-11
(PID.TID 0000.0001) // =======================================================
(PID.TID 0000.0001) // Begin MONITOR dynamic field statistics
(PID.TID 0000.0001) // =======================================================
(PID.TID 0000.0001) %MON time_tsnumber                =                    13
(PID.TID 0000.0001) %MON time_secondsf                =   5.8500000000000E+03
(PID.TID 0000.0001) %MON dynstat_eta_max              =   4.5150183039553E+03
(PID.TID 0000.0001) %MON dynstat_eta_min              =  -1.6390715272262E+03
(PID.TID 0000.0001) %MON dynstat_eta_mean             =   2.6307678366413E-14
(PID.TID 0000.0001) %MON dynstat_eta_sd               =   5.1809567749615E+02
(PID.TID 0000.0001) %MON dynstat_eta_del2             =   4.5248717123863E+00
(PID.TID 0000.0001) %MON dynstat_uvel_max             =   6.0826727748566E+00
(PID.TID 0000.0001) %MON dynstat_uvel_min             =  -5.6381520152585E+00
(PID.TID 0000.0001) %MON dynstat_uvel_mean            =  -9.0598748681702E-03
(PID.TID 0000.0001) %MON dynstat_uvel_sd              =   7.8448226945329E-01
(PID.TID 0000.0001) %MON dynstat_uvel_del2            =   9.9457366381686E-04
(PID.TID 0000.0001) %MON dynstat_vvel_max             =   7.6520423998528E+00
(PID.TID 0000.0001) %MON dynstat_vvel_min             =  -7.8095914390096E+00
(PID.TID 0000.0001) %MON dynstat_vvel_mean            =   1.8809375753787E-02
(PID.TID 0000.0001) %MON dynstat_vvel_sd              =   8.5076642121603E-01
(PID.TID 0000.0001) %MON dynstat_vvel_del2            =   1.1173862513253E-03
(PID.TID 0000.0001) %MON dynstat_wvel_max             =   1.6624087618225E-01
(PID.TID 0000.0001) %MON dynstat_wvel_min             =  -2.7364943627675E-01
(PID.TID 0000.0001) %MON dynstat_wvel_mean            =  -1.1413629235097E-03
(PID.TID 0000.0001) %MON dynstat_wvel_sd              =   1.0744244412625E-02
(PID.TID 0000.0001) %MON dynstat_wvel_del2            =   1.0334429110391E-04
(PID.TID 0000.0001) %MON dynstat_theta_max            =   4.3770896599919E+02
(PID.TID 0000.0001) %MON dynstat_theta_min            =   2.8641250764322E+02
(PID.TID 0000.0001) %MON dynstat_theta_mean           =   3.3170693705296E+02
(PID.TID 0000.0001) %MON dynstat_theta_sd             =   4.7429767943188E+01
(PID.TID 0000.0001) %MON dynstat_theta_del2           =   1.0829463411680E-03
(PID.TID 0000.0001) %MON dynstat_salt_max             =   3.4912546206783E+00
(PID.TID 0000.0001) %MON dynstat_salt_min             =  -2.2431087451332E-03
(PID.TID 0000.0001) %MON dynstat_salt_mean            =   4.8943505181894E-02
(PID.TID 0000.0001) %MON dynstat_salt_sd              =   2.0465404777293E-01
(PID.TID 0000.0001) %MON dynstat_salt_del2            =   7.5166408671593E-04
(PID.TID 0000.0001) %MON advcfl_uvel_max              =   8.5392263749459E-03
(PID.TID 0000.0001) %MON advcfl_vvel_max              =   1.1202882198521E-02
(PID.TID 0000.0001) %MON advcfl_wvel_max              =   4.4778998663467E-03
(PID.TID 0000.0001) %MON advcfl_W_hf_max              =   8.2386218781754E-03
(PID.TID 0000.0001) %MON am_eta_mean                  =  -3.7841655734164E+09
(PID.TID 0000.0001) %MON am_uZo_mean                  =   3.7722695938766E+09
(PID.TID 0000.0001) %MON am_tot_mean                  =  -1.1895979539792E+07
(PID.TID 0000.0001) %MON pe_b_mean                    =  -1.0876253852931E+00
(PID.TID 0000.0001) %MON ke_max                       =   3.5385295535152E+01
(PID.TID 0000.0001) %MON ke_mean                      =   6.6587961857598E-01
(PID.TID 0000.0001) %MON ke_vol                       =   4.9523908919847E+19
(PID.TID 0000.0001) %MON vort_r_min                   =  -3.1541287131937E-05
(PID.TID 0000.0001) %MON vort_r_max                   =   1.7679708639654E-05
(PID.TID 0000.0001) %MON vort_a_mean                  =   6.7242814765343E-08
(PID.TID 0000.0001) %MON vort_a_sd                    =   8.3959739292090E-05
(PID.TID 0000.0001) %MON vort_p_mean                  =   6.8939453655997E-08
(PID.TID 0000.0001) %MON vort_p_sd                    =   9.1892710957687E-05
(PID.TID 0000.0001) %MON surfExpan_theta_mean         =   1.0956230238972E-01
(PID.TID 0000.0001) %MON surfExpan_salt_mean          =  -1.8755632871667E-04
(PID.TID 0000.0001) %MON surfExpan_Heat_mean          =  -9.3756374821563E+00
(PID.TID 0000.0001) %MON En_Budget_T2PE_mean          =   1.7423859492725E+01
(PID.TID 0000.0001) // =======================================================
(PID.TID 0000.0001) // End MONITOR dynamic field statistics
(PID.TID 0000.0001) // =======================================================
(PID.TID 0000.0001) // =======================================================
(PID.TID 0000.0001) // Begin MONITOR Land statistics
(PID.TID 0000.0001) // =======================================================
(PID.TID 0000.0001) %MON land_time_sec                =   5.8500000000000E+03
(PID.TID 0000.0001) %MON land_SnwH_ave_G              =   1.5323530817697E-01
(PID.TID 0000.0001) %MON land_SnwH_ave_S              =   5.5905171939142E-01
(PID.TID 0000.0001) %MON land_SnwH_ave_T              =   0.0000000000000E+00
(PID.TID 0000.0001) %MON land_SnwH_ave_N              =   1.2391696928464E-01
(PID.TID 0000.0001) %MON land_SnwH_max_S              =   9.9999313916192E-01
(PID.TID 0000.0001) %MON land_SnwH_max_T              =   0.0000000000000E+00
(PID.TID 0000.0001) %MON land_SnwH_max_N              =   9.9999910393254E-01
(PID.TID 0000.0001) %MON land_Tsrf_ave_G              =  -7.5108614160486E+00
(PID.TID 0000.0001) %MON land_Tsrf_ave_S              =  -6.7818837698675E+00
(PID.TID 0000.0001) %MON land_Tsrf_ave_T              =   1.2166052184933E+01
(PID.TID 0000.0001) %MON land_Tsrf_ave_N              =  -2.0887001537346E+01
(PID.TID 0000.0001) %MON land_Tsrf_min_S              =  -3.3987771084767E+01
(PID.TID 0000.0001) %MON land_Tsrf_min_T              =  -5.2619993604202E+00
(PID.TID 0000.0001) %MON land_Tsrf_min_N              =  -5.1954197748158E+01
(PID.TID 0000.0001) %MON land_Tsrf_max_S              =   2.2727428172208E+01
(PID.TID 0000.0001) %MON land_Tsrf_max_T              =   2.4066371945535E+01
(PID.TID 0000.0001) %MON land_Tsrf_max_N              =   1.0571720209313E+01
(PID.TID 0000.0001) %MON land_Tgr1_ave_G              =  -6.2309749313376E+00
(PID.TID 0000.0001) %MON land_Tgr1_ave_S              =  -6.4874723229060E+00
(PID.TID 0000.0001) %MON land_Tgr1_ave_T              =   1.2166052184933E+01
(PID.TID 0000.0001) %MON land_Tgr1_ave_N              =  -1.8432762401311E+01
(PID.TID 0000.0001) %MON land_Tgr1_min_S              =  -3.9140698809117E+01
(PID.TID 0000.0001) %MON land_Tgr1_min_T              =  -5.2619993604202E+00
(PID.TID 0000.0001) %MON land_Tgr1_min_N              =  -5.4845977496863E+01
(PID.TID 0000.0001) %MON land_Tgr1_max_S              =   2.2727428172208E+01
(PID.TID 0000.0001) %MON land_Tgr1_max_T              =   2.4066371945535E+01
(PID.TID 0000.0001) %MON land_Tgr1_max_N              =   1.0571720209313E+01
(PID.TID 0000.0001) %MON land_Tgr2_ave_G              =   4.2057690908995E+00
(PID.TID 0000.0001) %MON land_Tgr2_ave_S              =  -1.8729020357849E+01
(PID.TID 0000.0001) %MON land_Tgr2_ave_T              =   2.2011580184150E+01
(PID.TID 0000.0001) %MON land_Tgr2_ave_N              =  -2.4452194392854E-01
(PID.TID 0000.0001) %MON land_Tgr2_min_S              =  -6.4756663315635E+01
(PID.TID 0000.0001) %MON land_Tgr2_min_T              =  -9.7045702825551E+00
(PID.TID 0000.0001) %MON land_Tgr2_min_N              =  -4.0196738181394E+01
(PID.TID 0000.0001) %MON land_Tgr2_max_S              =   2.3360605199170E+01
(PID.TID 0000.0001) %MON land_Tgr2_max_T              =   3.1356709398529E+01
(PID.TID 0000.0001) %MON land_Tgr2_max_N              =   2.9827585556860E+01
(PID.TID 0000.0001) %MON land_TotEnerg_G              =  -6.3248583483386E+21
(PID.TID 0000.0001) %MON land_TotEnerg_S              =  -5.0001523957766E+21
(PID.TID 0000.0001) %MON land_TotEnerg_T              =   7.2940558385602E+21
(PID.TID 0000.0001) %MON land_TotEnerg_N              =  -8.6187617911222E+21
(PID.TID 0000.0001) %MON land_grdW_ave_G              =   4.8686429246666E-01
(PID.TID 0000.0001) %MON land_grdW_ave_S              =   3.0862527353005E-01
(PID.TID 0000.0001) %MON land_grdW_ave_T              =   5.6444485056761E-01
(PID.TID 0000.0001) %MON land_grdW_ave_N              =   4.9287792908761E-01
(PID.TID 0000.0001) %MON land_grdW_min_S              =   2.6504459170929E-02
(PID.TID 0000.0001) %MON land_grdW_min_T              =   0.0000000000000E+00
(PID.TID 0000.0001) %MON land_grdW_min_N              =   0.0000000000000E+00
(PID.TID 0000.0001) // =======================================================
(PID.TID 0000.0001) // End MONITOR Land statistics
(PID.TID 0000.0001) // =======================================================
(PID.TID 0000.0001) // =======================================================
(PID.TID 0000.0001) // Begin MONITOR Therm.SeaIce statistics
(PID.TID 0000.0001) // =======================================================
(PID.TID 0000.0001) %MON thSI_time_sec                =   5.8500000000000E+03
(PID.TID 0000.0001) %MON thSI_Ice_Area_G              =   1.6553544107437E+11
(PID.TID 0000.0001) %MON thSI_Ice_Area_S              =   0.0000000000000E+00
(PID.TID 0000.0001) %MON thSI_Ice_Area_N              =   1.6553544107437E+11
(PID.TID 0000.0001) %MON thSI_IceH_ave_G              =   1.1452366584011E-01
(PID.TID 0000.0001) %MON thSI_IceH_ave_S              =   0.0000000000000E+00
(PID.TID 0000.0001) %MON thSI_IceH_ave_N              =   1.1452366584011E-01
(PID.TID 0000.0001) %MON thSI_IceH_max_S              =   0.0000000000000E+00
(PID.TID 0000.0001) %MON thSI_IceH_max_N              =   1.3507878342537E-01
(PID.TID 0000.0001) %MON thSI_SnwH_ave_G              =   0.0000000000000E+00
(PID.TID 0000.0001) %MON thSI_SnwH_ave_S              =   0.0000000000000E+00
(PID.TID 0000.0001) %MON thSI_SnwH_ave_N              =   0.0000000000000E+00
(PID.TID 0000.0001) %MON thSI_SnwH_max_S              =   0.0000000000000E+00
(PID.TID 0000.0001) %MON thSI_SnwH_max_N              =   0.0000000000000E+00
(PID.TID 0000.0001) %MON thSI_Tsrf_ave_G              =  -6.9960578679407E+00
(PID.TID 0000.0001) %MON thSI_Tsrf_ave_S              =   0.0000000000000E+00
(PID.TID 0000.0001) %MON thSI_Tsrf_ave_N              =  -6.9960578679407E+00
(PID.TID 0000.0001) %MON thSI_Tsrf_min_S              =   0.0000000000000E+00
(PID.TID 0000.0001) %MON thSI_Tsrf_min_N              =  -7.5236236058320E+00
(PID.TID 0000.0001) %MON thSI_Tsrf_max_S              =   0.0000000000000E+00
(PID.TID 0000.0001) %MON thSI_Tsrf_max_N              =  -3.5050768346298E+00
(PID.TID 0000.0001) %MON thSI_Tic1_ave_G              =  -4.9432752632587E+00
(PID.TID 0000.0001) %MON thSI_Tic1_ave_S              =   0.0000000000000E+00
(PID.TID 0000.0001) %MON thSI_Tic1_ave_N              =  -4.9432752632587E+00
(PID.TID 0000.0001) %MON thSI_Tic1_min_S              =   0.0000000000000E+00
(PID.TID 0000.0001) %MON thSI_Tic1_min_N              =  -5.0688198082136E+00
(PID.TID 0000.0001) %MON thSI_Tic1_max_S              =   0.0000000000000E+00
(PID.TID 0000.0001) %MON thSI_Tic1_max_N              =  -3.0497962190322E+00
(PID.TID 0000.0001) %MON thSI_Tic2_ave_G              =  -2.5071281075667E+00
(PID.TID 0000.0001) %MON thSI_Tic2_ave_S              =   0.0000000000000E+00
(PID.TID 0000.0001) %MON thSI_Tic2_ave_N              =  -2.5071281075667E+00
(PID.TID 0000.0001) %MON thSI_Tic2_min_S              =   0.0000000000000E+00
(PID.TID 0000.0001) %MON thSI_Tic2_min_N              =  -2.5950369461733E+00
(PID.TID 0000.0001) %MON thSI_Tic2_max_S              =   0.0000000000000E+00
(PID.TID 0000.0001) %MON thSI_Tic2_max_N              =  -2.1385429592811E+00
(PID.TID 0000.0001) %MON thSI_TotEnerg_G              =  -5.8013896468333E+18
(PID.TID 0000.0001) // =======================================================
(PID.TID 0000.0001) // End MONITOR Therm.SeaIce statistics
(PID.TID 0000.0001) // =======================================================
 cg2d: Sum(rhs),rhsMax =   7.91260390542448E-10  2.50401009580251E+04
(PID.TID 0000.0001)      cg2d_init_res =   1.46711721170643E+04
(PID.TID 0000.0001)      cg2d_iters(min,last) =      -1      16
(PID.TID 0000.0001)      cg2d_last_res =   9.10505310909592E-11
(PID.TID 0000.0001) // =======================================================
(PID.TID 0000.0001) // Begin MONITOR dynamic field statistics
(PID.TID 0000.0001) // =======================================================
(PID.TID 0000.0001) %MON time_tsnumber                =                    14
(PID.TID 0000.0001) %MON time_secondsf                =   6.3000000000000E+03
(PID.TID 0000.0001) %MON dynstat_eta_max              =   4.7476105932011E+03
(PID.TID 0000.0001) %MON dynstat_eta_min              =  -1.5195309028899E+03
(PID.TID 0000.0001) %MON dynstat_eta_mean             =  -4.0164394452539E-16
(PID.TID 0000.0001) %MON dynstat_eta_sd               =   5.3268568771817E+02
(PID.TID 0000.0001) %MON dynstat_eta_del2             =   4.5287203648096E+00
(PID.TID 0000.0001) %MON dynstat_uvel_max             =   5.7424439558579E+00
(PID.TID 0000.0001) %MON dynstat_uvel_min             =  -6.0007626966998E+00
(PID.TID 0000.0001) %MON dynstat_uvel_mean            =  -9.4149836925010E-03
(PID.TID 0000.0001) %MON dynstat_uvel_sd              =   7.8457666245949E-01
(PID.TID 0000.0001) %MON dynstat_uvel_del2            =   9.8399959597404E-04
(PID.TID 0000.0001) %MON dynstat_vvel_max             =   7.1723814047541E+00
(PID.TID 0000.0001) %MON dynstat_vvel_min             =  -7.4079238128434E+00
(PID.TID 0000.0001) %MON dynstat_vvel_mean            =   2.0447696988817E-02
(PID.TID 0000.0001) %MON dynstat_vvel_sd              =   8.4304422446011E-01
(PID.TID 0000.0001) %MON dynstat_vvel_del2            =   1.0693694103909E-03
(PID.TID 0000.0001) %MON dynstat_wvel_max             =   1.6976571556704E-01
(PID.TID 0000.0001) %MON dynstat_wvel_min             =  -2.4086950493776E-01
(PID.TID 0000.0001) %MON dynstat_wvel_mean            =  -9.8031969606596E-04
(PID.TID 0000.0001) %MON dynstat_wvel_sd              =   9.8531804773818E-03
(PID.TID 0000.0001) %MON dynstat_wvel_del2            =   9.6966582233666E-05
(PID.TID 0000.0001) %MON dynstat_theta_max            =   4.3779901747282E+02
(PID.TID 0000.0001) %MON dynstat_theta_min            =   2.8617376197039E+02
(PID.TID 0000.0001) %MON dynstat_theta_mean           =   3.3170538785456E+02
(PID.TID 0000.0001) %MON dynstat_theta_sd             =   4.7431572874199E+01
(PID.TID 0000.0001) %MON dynstat_theta_del2           =   1.1538662641987E-03
(PID.TID 0000.0001) %MON dynstat_salt_max             =   3.6173227496716E+00
(PID.TID 0000.0001) %MON dynstat_salt_min             =  -2.5520554453905E-03
(PID.TID 0000.0001) %MON dynstat_salt_mean            =   5.2498225275722E-02
(PID.TID 0000.0001) %MON dynstat_salt_sd              =   2.1839263329841E-01
(PID.TID 0000.0001) %MON dynstat_salt_del2            =   7.8382815666121E-04
(PID.TID 0000.0001) %MON advcfl_uvel_max              =   8.4242360202680E-03
(PID.TID 0000.0001) %MON advcfl_vvel_max              =   1.0626688791473E-02
(PID.TID 0000.0001) %MON advcfl_wvel_max              =   4.3654041145809E-03
(PID.TID 0000.0001) %MON advcfl_W_hf_max              =   7.7467990181603E-03
(PID.TID 0000.0001) %MON am_eta_mean                  =  -4.3397635360201E+09
(PID.TID 0000.0001) %MON am_uZo_mean                  =   4.3246841642233E+09
(PID.TID 0000.0001) %MON am_tot_mean                  =  -1.5079371796837E+07
(PID.TID 0000.0001) %MON pe_b_mean                    =  -1.0946122879407E+00
(PID.TID 0000.0001) %MON ke_max                       =   3.3024970356515E+01
(PID.TID 0000.0001) %MON ke_mean                      =   6.5948461009778E-01
(PID.TID 0000.0001) %MON ke_vol                       =   4.9523908919847E+19
(PID.TID 0000.0001) %MON vort_r_min                   =  -2.9712644984339E-05
(PID.TID 0000.0001) %MON vort_r_max                   =   1.6406284237641E-05
(PID.TID 0000.0001) %MON vort_a_mean                  =   6.7242814765331E-08
(PID.TID 0000.0001) %MON vort_a_sd                    =   8.3962323729869E-05
(PID.TID 0000.0001) %MON vort_p_mean                  =   6.8939455168236E-08
(PID.TID 0000.0001) %MON vort_p_sd                    =   9.1901566658692E-05
(PID.TID 0000.0001) %MON surfExpan_theta_mean         =   9.3367196665645E-02
(PID.TID 0000.0001) %MON surfExpan_salt_mean          =  -2.2195175808359E-04
(PID.TID 0000.0001) %MON surfExpan_Heat_mean          =  -8.0749367339977E+00
(PID.TID 0000.0001) %MON En_Budget_T2PE_mean          =   1.4936810245951E+01
(PID.TID 0000.0001) // =======================================================
(PID.TID 0000.0001) // End MONITOR dynamic field statistics
(PID.TID 0000.0001) // =======================================================
(PID.TID 0000.0001) // =======================================================
(PID.TID 0000.0001) // Begin MONITOR Land statistics
(PID.TID 0000.0001) // =======================================================
(PID.TID 0000.0001) %MON land_time_sec                =   6.3000000000000E+03
(PID.TID 0000.0001) %MON land_SnwH_ave_G              =   1.5323431644185E-01
(PID.TID 0000.0001) %MON land_SnwH_ave_S              =   5.5905080595826E-01
(PID.TID 0000.0001) %MON land_SnwH_ave_T              =   0.0000000000000E+00
(PID.TID 0000.0001) %MON land_SnwH_ave_N              =   1.2391528989728E-01
(PID.TID 0000.0001) %MON land_SnwH_max_S              =   9.9999258532453E-01
(PID.TID 0000.0001) %MON land_SnwH_max_T              =   0.0000000000000E+00
(PID.TID 0000.0001) %MON land_SnwH_max_N              =   9.9999903971213E-01
(PID.TID 0000.0001) %MON land_Tsrf_ave_G              =  -7.6367000502698E+00
(PID.TID 0000.0001) %MON land_Tsrf_ave_S              =  -6.9051639896480E+00
(PID.TID 0000.0001) %MON land_Tsrf_ave_T              =   1.1909753386440E+01
(PID.TID 0000.0001) %MON land_Tsrf_ave_N              =  -2.0926552644690E+01
(PID.TID 0000.0001) %MON land_Tsrf_min_S              =  -3.3963800766235E+01
(PID.TID 0000.0001) %MON land_Tsrf_min_T              =  -5.0964282212561E+00
(PID.TID 0000.0001) %MON land_Tsrf_min_N              =  -5.1973808876932E+01
(PID.TID 0000.0001) %MON land_Tsrf_max_S              =   2.2387956879150E+01
(PID.TID 0000.0001) %MON land_Tsrf_max_T              =   2.3592386309303E+01
(PID.TID 0000.0001) %MON land_Tsrf_max_N              =   1.0343160936809E+01
(PID.TID 0000.0001) %MON land_Tgr1_ave_G              =  -6.3563446242683E+00
(PID.TID 0000.0001) %MON land_Tgr1_ave_S              =  -6.5865381686661E+00
(PID.TID 0000.0001) %MON land_Tgr1_ave_T              =   1.1909753386440E+01
(PID.TID 0000.0001) %MON land_Tgr1_ave_N              =  -1.8479234295856E+01
(PID.TID 0000.0001) %MON land_Tgr1_min_S              =  -3.9151803788300E+01
(PID.TID 0000.0001) %MON land_Tgr1_min_T              =  -5.0964282212561E+00
(PID.TID 0000.0001) %MON land_Tgr1_min_N              =  -5.4833191277458E+01
(PID.TID 0000.0001) %MON land_Tgr1_max_S              =   2.2387956879150E+01
(PID.TID 0000.0001) %MON land_Tgr1_max_T              =   2.3592386309303E+01
(PID.TID 0000.0001) %MON land_Tgr1_max_N              =   1.0343160936809E+01
(PID.TID 0000.0001) %MON land_Tgr2_ave_G              =   4.2056073171709E+00
(PID.TID 0000.0001) %MON land_Tgr2_ave_S              =  -1.8728817378374E+01
(PID.TID 0000.0001) %MON land_Tgr2_ave_T              =   2.2011415097752E+01
(PID.TID 0000.0001) %MON land_Tgr2_ave_N              =  -2.4479982927027E-01
(PID.TID 0000.0001) %MON land_Tgr2_min_S              =  -6.4756231532741E+01
(PID.TID 0000.0001) %MON land_Tgr2_min_T              =  -9.7045120567717E+00
(PID.TID 0000.0001) %MON land_Tgr2_min_N              =  -4.0196976328210E+01
(PID.TID 0000.0001) %MON land_Tgr2_max_S              =   2.3360579246778E+01
(PID.TID 0000.0001) %MON land_Tgr2_max_T              =   3.1356322726138E+01
(PID.TID 0000.0001) %MON land_Tgr2_max_N              =   2.9827126127854E+01
(PID.TID 0000.0001) %MON land_TotEnerg_G              =  -6.3281743368416E+21
(PID.TID 0000.0001) %MON land_TotEnerg_S              =  -5.0004726441586E+21
(PID.TID 0000.0001) %MON land_TotEnerg_T              =   7.2918297199703E+21
(PID.TID 0000.0001) %MON land_TotEnerg_N              =  -8.6195314126533E+21
(PID.TID 0000.0001) %MON land_grdW_ave_G              =   4.8685399661949E-01
(PID.TID 0000.0001) %MON land_grdW_ave_S              =   3.0861608640244E-01
(PID.TID 0000.0001) %MON land_grdW_ave_T              =   5.6441909235015E-01
(PID.TID 0000.0001) %MON land_grdW_ave_N              =   4.9287759889470E-01
(PID.TID 0000.0001) %MON land_grdW_min_S              =   2.6581284178619E-02
(PID.TID 0000.0001) %MON land_grdW_min_T              =   0.0000000000000E+00
(PID.TID 0000.0001) %MON land_grdW_min_N              =   0.0000000000000E+00
(PID.TID 0000.0001) // =======================================================
(PID.TID 0000.0001) // End MONITOR Land statistics
(PID.TID 0000.0001) // =======================================================
(PID.TID 0000.0001) // =======================================================
(PID.TID 0000.0001) // Begin MONITOR Therm.SeaIce statistics
(PID.TID 0000.0001) // =======================================================
(PID.TID 0000.0001) %MON thSI_time_sec                =   6.3000000000000E+03
(PID.TID 0000.0001) %MON thSI_Ice_Area_G              =   1.7520877967353E+11
(PID.TID 0000.0001) %MON thSI_Ice_Area_S              =   0.0000000000000E+00
(PID.TID 0000.0001) %MON thSI_Ice_Area_N              =   1.7520877967353E+11
(PID.TID 0000.0001) %MON thSI_IceH_ave_G              =   1.1650732103041E-01
(PID.TID 0000.0001) %MON thSI_IceH_ave_S              =   0.0000000000000E+00
(PID.TID 0000.0001) %MON thSI_IceH_ave_N              =   1.1650732103041E-01
(PID.TID 0000.0001) %MON thSI_IceH_max_S              =   0.0000000000000E+00
(PID.TID 0000.0001) %MON thSI_IceH_max_N              =   1.3792323470608E-01
(PID.TID 0000.0001) %MON thSI_SnwH_ave_G              =   0.0000000000000E+00
(PID.TID 0000.0001) %MON thSI_SnwH_ave_S              =   0.0000000000000E+00
(PID.TID 0000.0001) %MON thSI_SnwH_ave_N              =   0.0000000000000E+00
(PID.TID 0000.0001) %MON thSI_SnwH_max_S              =   0.0000000000000E+00
(PID.TID 0000.0001) %MON thSI_SnwH_max_N              =   0.0000000000000E+00
(PID.TID 0000.0001) %MON thSI_Tsrf_ave_G              =  -7.1702562601438E+00
(PID.TID 0000.0001) %MON thSI_Tsrf_ave_S              =   0.0000000000000E+00
(PID.TID 0000.0001) %MON thSI_Tsrf_ave_N              =  -7.1702562601438E+00
(PID.TID 0000.0001) %MON thSI_Tsrf_min_S              =   0.0000000000000E+00
(PID.TID 0000.0001) %MON thSI_Tsrf_min_N              =  -7.7253357512021E+00
(PID.TID 0000.0001) %MON thSI_Tsrf_max_S              =   0.0000000000000E+00
(PID.TID 0000.0001) %MON thSI_Tsrf_max_N              =  -3.5297752733512E+00
(PID.TID 0000.0001) %MON thSI_Tic1_ave_G              =  -5.1291428633840E+00
(PID.TID 0000.0001) %MON thSI_Tic1_ave_S              =   0.0000000000000E+00
(PID.TID 0000.0001) %MON thSI_Tic1_ave_N              =  -5.1291428633840E+00
(PID.TID 0000.0001) %MON thSI_Tic1_min_S              =   0.0000000000000E+00
(PID.TID 0000.0001) %MON thSI_Tic1_min_N              =  -5.2631049328081E+00
(PID.TID 0000.0001) %MON thSI_Tic1_max_S              =   0.0000000000000E+00
(PID.TID 0000.0001) %MON thSI_Tic1_max_N              =  -3.0682559456526E+00
(PID.TID 0000.0001) %MON thSI_Tic2_ave_G              =  -2.5671237830273E+00
(PID.TID 0000.0001) %MON thSI_Tic2_ave_S              =   0.0000000000000E+00
(PID.TID 0000.0001) %MON thSI_Tic2_ave_N              =  -2.5671237830273E+00
(PID.TID 0000.0001) %MON thSI_Tic2_min_S              =   0.0000000000000E+00
(PID.TID 0000.0001) %MON thSI_Tic2_min_N              =  -2.6612093260417E+00
(PID.TID 0000.0001) %MON thSI_Tic2_max_S              =   0.0000000000000E+00
(PID.TID 0000.0001) %MON thSI_Tic2_max_N              =  -2.1446472342317E+00
(PID.TID 0000.0001) %MON thSI_TotEnerg_G              =  -6.2526260361045E+18
(PID.TID 0000.0001) // =======================================================
(PID.TID 0000.0001) // End MONITOR Therm.SeaIce statistics
(PID.TID 0000.0001) // =======================================================
 cg2d: Sum(rhs),rhsMax =   1.16415321826935E-10  2.56132968303363E+04
(PID.TID 0000.0001)      cg2d_init_res =   1.37903875544642E+04
(PID.TID 0000.0001)      cg2d_iters(min,last) =      -1      16
(PID.TID 0000.0001)      cg2d_last_res =   8.96558460439508E-11
(PID.TID 0000.0001) // =======================================================
(PID.TID 0000.0001) // Begin MONITOR dynamic field statistics
(PID.TID 0000.0001) // =======================================================
(PID.TID 0000.0001) %MON time_tsnumber                =                    15
(PID.TID 0000.0001) %MON time_secondsf                =   6.7500000000000E+03
(PID.TID 0000.0001) %MON dynstat_eta_max              =   4.8611735358034E+03
(PID.TID 0000.0001) %MON dynstat_eta_min              =  -1.3913096958473E+03
(PID.TID 0000.0001) %MON dynstat_eta_mean             =  -1.3655894113863E-14
(PID.TID 0000.0001) %MON dynstat_eta_sd               =   5.4440864421245E+02
(PID.TID 0000.0001) %MON dynstat_eta_del2             =   4.5275395901455E+00
(PID.TID 0000.0001) %MON dynstat_uvel_max             =   5.7945480708619E+00
(PID.TID 0000.0001) %MON dynstat_uvel_min             =  -6.3534357275637E+00
(PID.TID 0000.0001) %MON dynstat_uvel_mean            =  -9.6154575830348E-03
(PID.TID 0000.0001) %MON dynstat_uvel_sd              =   7.8714282750629E-01
(PID.TID 0000.0001) %MON dynstat_uvel_del2            =   9.8578086625215E-04
(PID.TID 0000.0001) %MON dynstat_vvel_max             =   6.5889047346906E+00
(PID.TID 0000.0001) %MON dynstat_vvel_min             =  -6.8556080320143E+00
(PID.TID 0000.0001) %MON dynstat_vvel_mean            =   2.2025004567523E-02
(PID.TID 0000.0001) %MON dynstat_vvel_sd              =   8.3341122815129E-01
(PID.TID 0000.0001) %MON dynstat_vvel_del2            =   1.0351156048747E-03
(PID.TID 0000.0001) %MON dynstat_wvel_max             =   1.6682804754404E-01
(PID.TID 0000.0001) %MON dynstat_wvel_min             =  -2.0345065995627E-01
(PID.TID 0000.0001) %MON dynstat_wvel_mean            =  -8.1754912181906E-04
(PID.TID 0000.0001) %MON dynstat_wvel_sd              =   9.0984710747420E-03
(PID.TID 0000.0001) %MON dynstat_wvel_del2            =   9.2223482513800E-05
(PID.TID 0000.0001) %MON dynstat_theta_max            =   4.3793747072635E+02
(PID.TID 0000.0001) %MON dynstat_theta_min            =   2.8593695266674E+02
(PID.TID 0000.0001) %MON dynstat_theta_mean           =   3.3170378620460E+02
(PID.TID 0000.0001) %MON dynstat_theta_sd             =   4.7433417327100E+01
(PID.TID 0000.0001) %MON dynstat_theta_del2           =   1.2224709716233E-03
(PID.TID 0000.0001) %MON dynstat_salt_max             =   3.7331010559289E+00
(PID.TID 0000.0001) %MON dynstat_salt_min             =  -2.8786262367098E-03
(PID.TID 0000.0001) %MON dynstat_salt_mean            =   5.6032670628581E-02
(PID.TID 0000.0001) %MON dynstat_salt_sd              =   2.3190950264889E-01
(PID.TID 0000.0001) %MON dynstat_salt_del2            =   8.1499666712228E-04
(PID.TID 0000.0001) %MON advcfl_uvel_max              =   8.9563872077990E-03
(PID.TID 0000.0001) %MON advcfl_vvel_max              =   9.8527761453653E-03
(PID.TID 0000.0001) %MON advcfl_wvel_max              =   4.2898640797038E-03
(PID.TID 0000.0001) %MON advcfl_W_hf_max              =   7.6017871337613E-03
(PID.TID 0000.0001) %MON am_eta_mean                  =  -4.9214968181132E+09
(PID.TID 0000.0001) %MON am_uZo_mean                  =   4.9019298230073E+09
(PID.TID 0000.0001) %MON am_tot_mean                  =  -1.9566995105820E+07
(PID.TID 0000.0001) %MON pe_b_mean                    =  -1.1008766009988E+00
(PID.TID 0000.0001) %MON ke_max                       =   3.0079634404979E+01
(PID.TID 0000.0001) %MON ke_mean                      =   6.5349476105450E-01
(PID.TID 0000.0001) %MON ke_vol                       =   4.9523908919847E+19
(PID.TID 0000.0001) %MON vort_r_min                   =  -2.8211374069469E-05
(PID.TID 0000.0001) %MON vort_r_max                   =   1.5974671728278E-05
(PID.TID 0000.0001) %MON vort_a_mean                  =   6.7242814765301E-08
(PID.TID 0000.0001) %MON vort_a_sd                    =   8.3964938914438E-05
(PID.TID 0000.0001) %MON vort_p_mean                  =   6.8939456748066E-08
(PID.TID 0000.0001) %MON vort_p_sd                    =   9.1907434171999E-05
(PID.TID 0000.0001) %MON surfExpan_theta_mean         =   7.7054513887408E-02
(PID.TID 0000.0001) %MON surfExpan_salt_mean          =  -2.6026034613354E-04
(PID.TID 0000.0001) %MON surfExpan_Heat_mean          =  -6.7536800891662E+00
(PID.TID 0000.0001) %MON En_Budget_T2PE_mean          =   1.2421052500129E+01
(PID.TID 0000.0001) // =======================================================
(PID.TID 0000.0001) // End MONITOR dynamic field statistics
(PID.TID 0000.0001) // =======================================================
(PID.TID 0000.0001) // =======================================================
(PID.TID 0000.0001) // Begin MONITOR Land statistics
(PID.TID 0000.0001) // =======================================================
(PID.TID 0000.0001) %MON land_time_sec                =   6.7500000000000E+03
(PID.TID 0000.0001) %MON land_SnwH_ave_G              =   1.5323333006684E-01
(PID.TID 0000.0001) %MON land_SnwH_ave_S              =   5.5904990656114E-01
(PID.TID 0000.0001) %MON land_SnwH_ave_T              =   0.0000000000000E+00
(PID.TID 0000.0001) %MON land_SnwH_ave_N              =   1.2391361663495E-01
(PID.TID 0000.0001) %MON land_SnwH_max_S              =   9.9999202970565E-01
(PID.TID 0000.0001) %MON land_SnwH_max_T              =   0.0000000000000E+00
(PID.TID 0000.0001) %MON land_SnwH_max_N              =   9.9999897570317E-01
(PID.TID 0000.0001) %MON land_Tsrf_ave_G              =  -7.7506374135051E+00
(PID.TID 0000.0001) %MON land_Tsrf_ave_S              =  -7.0167361354462E+00
(PID.TID 0000.0001) %MON land_Tsrf_ave_T              =   1.1678779200301E+01
(PID.TID 0000.0001) %MON land_Tsrf_ave_N              =  -2.0963103521710E+01
(PID.TID 0000.0001) %MON land_Tsrf_min_S              =  -3.3920957565109E+01
(PID.TID 0000.0001) %MON land_Tsrf_min_T              =  -4.9361549568840E+00
(PID.TID 0000.0001) %MON land_Tsrf_min_N              =  -5.1994377475075E+01
(PID.TID 0000.0001) %MON land_Tsrf_max_S              =   2.2084708331696E+01
(PID.TID 0000.0001) %MON land_Tsrf_max_T              =   2.3163503591642E+01
(PID.TID 0000.0001) %MON land_Tsrf_max_N              =   1.0125467289668E+01
(PID.TID 0000.0001) %MON land_Tgr1_ave_G              =  -6.4700920353847E+00
(PID.TID 0000.0001) %MON land_Tgr1_ave_S              =  -6.6750963355860E+00
(PID.TID 0000.0001) %MON land_Tgr1_ave_T              =   1.1678779200301E+01
(PID.TID 0000.0001) %MON land_Tgr1_ave_N              =  -1.8522872351530E+01
(PID.TID 0000.0001) %MON land_Tgr1_min_S              =  -3.9162909801641E+01
(PID.TID 0000.0001) %MON land_Tgr1_min_T              =  -4.9361549568840E+00
(PID.TID 0000.0001) %MON land_Tgr1_min_N              =  -5.4820446203577E+01
(PID.TID 0000.0001) %MON land_Tgr1_max_S              =   2.2084708331696E+01
(PID.TID 0000.0001) %MON land_Tgr1_max_T              =   2.3163503591642E+01
(PID.TID 0000.0001) %MON land_Tgr1_max_N              =   1.0125467289668E+01
(PID.TID 0000.0001) %MON land_Tgr2_ave_G              =   4.2054437393534E+00
(PID.TID 0000.0001) %MON land_Tgr2_ave_S              =  -1.8728615803967E+01
(PID.TID 0000.0001) %MON land_Tgr2_ave_T              =   2.2011246454186E+01
(PID.TID 0000.0001) %MON land_Tgr2_ave_N              =  -2.4507847748707E-01
(PID.TID 0000.0001) %MON land_Tgr2_min_S              =  -6.4755799964575E+01
(PID.TID 0000.0001) %MON land_Tgr2_min_T              =  -9.7044518067439E+00
(PID.TID 0000.0001) %MON land_Tgr2_min_N              =  -4.0197214231662E+01
(PID.TID 0000.0001) %MON land_Tgr2_max_S              =   2.3360547772548E+01
(PID.TID 0000.0001) %MON land_Tgr2_max_T              =   3.1355930587497E+01
(PID.TID 0000.0001) %MON land_Tgr2_max_N              =   2.9826659399769E+01
(PID.TID 0000.0001) %MON land_TotEnerg_G              =  -6.3312165325686E+21
(PID.TID 0000.0001) %MON land_TotEnerg_S              =  -5.0007566376373E+21
(PID.TID 0000.0001) %MON land_TotEnerg_T              =   7.2898222046917E+21
(PID.TID 0000.0001) %MON land_TotEnerg_N              =  -8.6202820996230E+21
(PID.TID 0000.0001) %MON land_grdW_ave_G              =   4.8684406873145E-01
(PID.TID 0000.0001) %MON land_grdW_ave_S              =   3.0860708931735E-01
(PID.TID 0000.0001) %MON land_grdW_ave_T              =   5.6439433037805E-01
(PID.TID 0000.0001) %MON land_grdW_ave_N              =   4.9287727482492E-01
(PID.TID 0000.0001) %MON land_grdW_min_S              =   2.6660185223901E-02
(PID.TID 0000.0001) %MON land_grdW_min_T              =   0.0000000000000E+00
(PID.TID 0000.0001) %MON land_grdW_min_N              =   0.0000000000000E+00
(PID.TID 0000.0001) // =======================================================
(PID.TID 0000.0001) // End MONITOR Land statistics
(PID.TID 0000.0001) // =======================================================
(PID.TID 0000.0001) // =======================================================
(PID.TID 0000.0001) // Begin MONITOR Therm.SeaIce statistics
(PID.TID 0000.0001) // =======================================================
(PID.TID 0000.0001) %MON thSI_time_sec                =   6.7500000000000E+03
(PID.TID 0000.0001) %MON thSI_Ice_Area_G              =   1.8457829420357E+11
(PID.TID 0000.0001) %MON thSI_Ice_Area_S              =   0.0000000000000E+00
(PID.TID 0000.0001) %MON thSI_Ice_Area_N              =   1.8457829420357E+11
(PID.TID 0000.0001) %MON thSI_IceH_ave_G              =   1.1848252098510E-01
(PID.TID 0000.0001) %MON thSI_IceH_ave_S              =   0.0000000000000E+00
(PID.TID 0000.0001) %MON thSI_IceH_ave_N              =   1.1848252098510E-01
(PID.TID 0000.0001) %MON thSI_IceH_max_S              =   0.0000000000000E+00
(PID.TID 0000.0001) %MON thSI_IceH_max_N              =   1.4075425534550E-01
(PID.TID 0000.0001) %MON thSI_SnwH_ave_G              =   0.0000000000000E+00
(PID.TID 0000.0001) %MON thSI_SnwH_ave_S              =   0.0000000000000E+00
(PID.TID 0000.0001) %MON thSI_SnwH_ave_N              =   0.0000000000000E+00
(PID.TID 0000.0001) %MON thSI_SnwH_max_S              =   0.0000000000000E+00
(PID.TID 0000.0001) %MON thSI_SnwH_max_N              =   0.0000000000000E+00
(PID.TID 0000.0001) %MON thSI_Tsrf_ave_G              =  -7.3311801926800E+00
(PID.TID 0000.0001) %MON thSI_Tsrf_ave_S              =   0.0000000000000E+00
(PID.TID 0000.0001) %MON thSI_Tsrf_ave_N              =  -7.3311801926800E+00
(PID.TID 0000.0001) %MON thSI_Tsrf_min_S              =   0.0000000000000E+00
(PID.TID 0000.0001) %MON thSI_Tsrf_min_N              =  -7.9120992308200E+00
(PID.TID 0000.0001) %MON thSI_Tsrf_max_S              =   0.0000000000000E+00
(PID.TID 0000.0001) %MON thSI_Tsrf_max_N              =  -3.5539207716375E+00
(PID.TID 0000.0001) %MON thSI_Tic1_ave_G              =  -5.3001677399923E+00
(PID.TID 0000.0001) %MON thSI_Tic1_ave_S              =   0.0000000000000E+00
(PID.TID 0000.0001) %MON thSI_Tic1_ave_N              =  -5.3001677399923E+00
(PID.TID 0000.0001) %MON thSI_Tic1_min_S              =   0.0000000000000E+00
(PID.TID 0000.0001) %MON thSI_Tic1_min_N              =  -5.4411535973327E+00
(PID.TID 0000.0001) %MON thSI_Tic1_max_S              =   0.0000000000000E+00
(PID.TID 0000.0001) %MON thSI_Tic1_max_N              =  -3.0863101601487E+00
(PID.TID 0000.0001) %MON thSI_Tic2_ave_G              =  -2.6228870790551E+00
(PID.TID 0000.0001) %MON thSI_Tic2_ave_S              =   0.0000000000000E+00
(PID.TID 0000.0001) %MON thSI_Tic2_ave_N              =  -2.6228870790551E+00
(PID.TID 0000.0001) %MON thSI_Tic2_min_S              =   0.0000000000000E+00
(PID.TID 0000.0001) %MON thSI_Tic2_min_N              =  -2.7225969874033E+00
(PID.TID 0000.0001) %MON thSI_Tic2_max_S              =   0.0000000000000E+00
(PID.TID 0000.0001) %MON thSI_Tic2_max_N              =  -2.1506177993334E+00
(PID.TID 0000.0001) %MON thSI_TotEnerg_G              =  -6.7043846453463E+18
(PID.TID 0000.0001) // =======================================================
(PID.TID 0000.0001) // End MONITOR Therm.SeaIce statistics
(PID.TID 0000.0001) // =======================================================
 cg2d: Sum(rhs),rhsMax =   4.76575223729014E-10  2.57790631450313E+04
(PID.TID 0000.0001)      cg2d_init_res =   1.31405399238573E+04
(PID.TID 0000.0001)      cg2d_iters(min,last) =      -1      16
(PID.TID 0000.0001)      cg2d_last_res =   8.68651327420961E-11
(PID.TID 0000.0001) // =======================================================
(PID.TID 0000.0001) // Begin MONITOR dynamic field statistics
(PID.TID 0000.0001) // =======================================================
(PID.TID 0000.0001) %MON time_tsnumber                =                    16
(PID.TID 0000.0001) %MON time_secondsf                =   7.2000000000000E+03
(PID.TID 0000.0001) %MON dynstat_eta_max              =   4.9100093656546E+03
(PID.TID 0000.0001) %MON dynstat_eta_min              =  -1.3020263170299E+03
(PID.TID 0000.0001) %MON dynstat_eta_mean             =  -5.4221932510928E-15
(PID.TID 0000.0001) %MON dynstat_eta_sd               =   5.5318048090437E+02
(PID.TID 0000.0001) %MON dynstat_eta_del2             =   4.5213899257851E+00
(PID.TID 0000.0001) %MON dynstat_uvel_max             =   5.8786506233100E+00
(PID.TID 0000.0001) %MON dynstat_uvel_min             =  -6.5183909631735E+00
(PID.TID 0000.0001) %MON dynstat_uvel_mean            =  -9.6032259018958E-03
(PID.TID 0000.0001) %MON dynstat_uvel_sd              =   7.9220031255192E-01
(PID.TID 0000.0001) %MON dynstat_uvel_del2            =   9.9748784237804E-04
(PID.TID 0000.0001) %MON dynstat_vvel_max             =   5.9681692792282E+00
(PID.TID 0000.0001) %MON dynstat_vvel_min             =  -6.3076377810996E+00
(PID.TID 0000.0001) %MON dynstat_vvel_mean            =   2.3510239183605E-02
(PID.TID 0000.0001) %MON dynstat_vvel_sd              =   8.2366187093081E-01
(PID.TID 0000.0001) %MON dynstat_vvel_del2            =   1.0151963959205E-03
(PID.TID 0000.0001) %MON dynstat_wvel_max             =   1.6215914482119E-01
(PID.TID 0000.0001) %MON dynstat_wvel_min             =  -1.6314006017643E-01
(PID.TID 0000.0001) %MON dynstat_wvel_mean            =  -6.5364349448126E-04
(PID.TID 0000.0001) %MON dynstat_wvel_sd              =   8.5755008977697E-03
(PID.TID 0000.0001) %MON dynstat_wvel_del2            =   8.9795237225868E-05
(PID.TID 0000.0001) %MON dynstat_theta_max            =   4.3805796607547E+02
(PID.TID 0000.0001) %MON dynstat_theta_min            =   2.8570214938624E+02
(PID.TID 0000.0001) %MON dynstat_theta_mean           =   3.3170213654912E+02
(PID.TID 0000.0001) %MON dynstat_theta_sd             =   4.7435295678650E+01
(PID.TID 0000.0001) %MON dynstat_theta_del2           =   1.2888712320404E-03
(PID.TID 0000.0001) %MON dynstat_salt_max             =   3.8396513005878E+00
(PID.TID 0000.0001) %MON dynstat_salt_min             =  -3.2232256292447E-03
(PID.TID 0000.0001) %MON dynstat_salt_mean            =   5.9548016197357E-02
(PID.TID 0000.0001) %MON dynstat_salt_sd              =   2.4522167380630E-01
(PID.TID 0000.0001) %MON dynstat_salt_del2            =   8.4526654847018E-04
(PID.TID 0000.0001) %MON advcfl_uvel_max              =   9.1889232757512E-03
(PID.TID 0000.0001) %MON advcfl_vvel_max              =   9.1182982571053E-03
(PID.TID 0000.0001) %MON advcfl_wvel_max              =   4.0727603424626E-03
(PID.TID 0000.0001) %MON advcfl_W_hf_max              =   7.2048919017838E-03
(PID.TID 0000.0001) %MON am_eta_mean                  =  -5.5263502503273E+09
(PID.TID 0000.0001) %MON am_uZo_mean                  =   5.5012316417852E+09
(PID.TID 0000.0001) %MON am_tot_mean                  =  -2.5118608542146E+07
(PID.TID 0000.0001) %MON pe_b_mean                    =  -1.1081510672225E+00
(PID.TID 0000.0001) %MON ke_max                       =   2.6937279373027E+01
(PID.TID 0000.0001) %MON ke_mean                      =   6.4946550957361E-01
(PID.TID 0000.0001) %MON ke_vol                       =   4.9523908919847E+19
(PID.TID 0000.0001) %MON vort_r_min                   =  -2.7357023846202E-05
(PID.TID 0000.0001) %MON vort_r_max                   =   1.5001879926996E-05
(PID.TID 0000.0001) %MON vort_a_mean                  =   6.7242814765293E-08
(PID.TID 0000.0001) %MON vort_a_sd                    =   8.3967583344683E-05
(PID.TID 0000.0001) %MON vort_p_mean                  =   6.8939458311125E-08
(PID.TID 0000.0001) %MON vort_p_sd                    =   9.1910149113477E-05
(PID.TID 0000.0001) %MON surfExpan_theta_mean         =   6.0713583499819E-02
(PID.TID 0000.0001) %MON surfExpan_salt_mean          =  -3.0319779071838E-04
(PID.TID 0000.0001) %MON surfExpan_Heat_mean          =  -5.4187636916412E+00
(PID.TID 0000.0001) %MON En_Budget_T2PE_mean          =   9.8892498220617E+00
(PID.TID 0000.0001) // =======================================================
(PID.TID 0000.0001) // End MONITOR dynamic field statistics
(PID.TID 0000.0001) // =======================================================
(PID.TID 0000.0001) // =======================================================
(PID.TID 0000.0001) // Begin MONITOR Land statistics
(PID.TID 0000.0001) // =======================================================
(PID.TID 0000.0001) %MON land_time_sec                =   7.2000000000000E+03
(PID.TID 0000.0001) %MON land_SnwH_ave_G              =   1.5323234861130E-01
(PID.TID 0000.0001) %MON land_SnwH_ave_S              =   5.5904901951823E-01
(PID.TID 0000.0001) %MON land_SnwH_ave_T              =   0.0000000000000E+00
(PID.TID 0000.0001) %MON land_SnwH_ave_N              =   1.2391194916539E-01
(PID.TID 0000.0001) %MON land_SnwH_max_S              =   9.9999147043791E-01
(PID.TID 0000.0001) %MON land_SnwH_max_T              =   0.0000000000000E+00
(PID.TID 0000.0001) %MON land_SnwH_max_N              =   9.9999891184565E-01
(PID.TID 0000.0001) %MON land_Tsrf_ave_G              =  -7.8528614592367E+00
(PID.TID 0000.0001) %MON land_Tsrf_ave_S              =  -7.1121571221028E+00
(PID.TID 0000.0001) %MON land_Tsrf_ave_T              =   1.1470100244572E+01
(PID.TID 0000.0001) %MON land_Tsrf_ave_N              =  -2.0996446980243E+01
(PID.TID 0000.0001) %MON land_Tsrf_min_S              =  -3.3866881383521E+01
(PID.TID 0000.0001) %MON land_Tsrf_min_T              =  -4.7809312401802E+00
(PID.TID 0000.0001) %MON land_Tsrf_min_N              =  -5.2008684292543E+01
(PID.TID 0000.0001) %MON land_Tsrf_max_S              =   2.1814028802693E+01
(PID.TID 0000.0001) %MON land_Tsrf_max_T              =   2.2775580002706E+01
(PID.TID 0000.0001) %MON land_Tsrf_max_N              =   9.9183359250168E+00
(PID.TID 0000.0001) %MON land_Tgr1_ave_G              =  -6.5733334778301E+00
(PID.TID 0000.0001) %MON land_Tgr1_ave_S              =  -6.7542190227131E+00
(PID.TID 0000.0001) %MON land_Tgr1_ave_T              =   1.1470100244572E+01
(PID.TID 0000.0001) %MON land_Tgr1_ave_N              =  -1.8563529700736E+01
(PID.TID 0000.0001) %MON land_Tgr1_min_S              =  -3.9174037624813E+01
(PID.TID 0000.0001) %MON land_Tgr1_min_T              =  -4.7809312401802E+00
(PID.TID 0000.0001) %MON land_Tgr1_min_N              =  -5.4807736110594E+01
(PID.TID 0000.0001) %MON land_Tgr1_max_S              =   2.1814028802693E+01
(PID.TID 0000.0001) %MON land_Tgr1_max_T              =   2.2775580002706E+01
(PID.TID 0000.0001) %MON land_Tgr1_max_N              =   9.9183359250168E+00
(PID.TID 0000.0001) %MON land_Tgr2_ave_G              =   4.2052785395116E+00
(PID.TID 0000.0001) %MON land_Tgr2_ave_S              =  -1.8728415484559E+01
(PID.TID 0000.0001) %MON land_Tgr2_ave_T              =   2.2011074631900E+01
(PID.TID 0000.0001) %MON land_Tgr2_ave_N              =  -2.4535782727288E-01
(PID.TID 0000.0001) %MON land_Tgr2_min_S              =  -6.4755368609912E+01
(PID.TID 0000.0001) %MON land_Tgr2_min_T              =  -9.7043895963199E+00
(PID.TID 0000.0001) %MON land_Tgr2_min_N              =  -4.0197451892864E+01
(PID.TID 0000.0001) %MON land_Tgr2_max_S              =   2.3360511337997E+01
(PID.TID 0000.0001) %MON land_Tgr2_max_T              =   3.1355533371115E+01
(PID.TID 0000.0001) %MON land_Tgr2_max_N              =   2.9826185636448E+01
(PID.TID 0000.0001) %MON land_TotEnerg_G              =  -6.3340128907352E+21
(PID.TID 0000.0001) %MON land_TotEnerg_S              =  -5.0010081016686E+21
(PID.TID 0000.0001) %MON land_TotEnerg_T              =   7.2880100742102E+21
(PID.TID 0000.0001) %MON land_TotEnerg_N              =  -8.6210148632769E+21
(PID.TID 0000.0001) %MON land_grdW_ave_G              =   4.8683447335734E-01
(PID.TID 0000.0001) %MON land_grdW_ave_S              =   3.0859826460161E-01
(PID.TID 0000.0001) %MON land_grdW_ave_T              =   5.6437046880882E-01
(PID.TID 0000.0001) %MON land_grdW_ave_N              =   4.9287695599948E-01
(PID.TID 0000.0001) %MON land_grdW_min_S              =   2.6740854497386E-02
(PID.TID 0000.0001) %MON land_grdW_min_T              =   0.0000000000000E+00
(PID.TID 0000.0001) %MON land_grdW_min_N              =   0.0000000000000E+00
(PID.TID 0000.0001) // =======================================================
(PID.TID 0000.0001) // End MONITOR Land statistics
(PID.TID 0000.0001) // =======================================================
(PID.TID 0000.0001) // =======================================================
(PID.TID 0000.0001) // Begin MONITOR Therm.SeaIce statistics
(PID.TID 0000.0001) // =======================================================
(PID.TID 0000.0001) %MON thSI_time_sec                =   7.2000000000000E+03
(PID.TID 0000.0001) %MON thSI_Ice_Area_G              =   1.9366151323363E+11
(PID.TID 0000.0001) %MON thSI_Ice_Area_S              =   0.0000000000000E+00
(PID.TID 0000.0001) %MON thSI_Ice_Area_N              =   1.9366151323363E+11
(PID.TID 0000.0001) %MON thSI_IceH_ave_G              =   1.2044913591271E-01
(PID.TID 0000.0001) %MON thSI_IceH_ave_S              =   0.0000000000000E+00
(PID.TID 0000.0001) %MON thSI_IceH_ave_N              =   1.2044913591271E-01
(PID.TID 0000.0001) %MON thSI_IceH_max_S              =   0.0000000000000E+00
(PID.TID 0000.0001) %MON thSI_IceH_max_N              =   1.4357155348779E-01
(PID.TID 0000.0001) %MON thSI_SnwH_ave_G              =   0.0000000000000E+00
(PID.TID 0000.0001) %MON thSI_SnwH_ave_S              =   0.0000000000000E+00
(PID.TID 0000.0001) %MON thSI_SnwH_ave_N              =   0.0000000000000E+00
(PID.TID 0000.0001) %MON thSI_SnwH_max_S              =   0.0000000000000E+00
(PID.TID 0000.0001) %MON thSI_SnwH_max_N              =   0.0000000000000E+00
(PID.TID 0000.0001) %MON thSI_Tsrf_ave_G              =  -7.4798996315947E+00
(PID.TID 0000.0001) %MON thSI_Tsrf_ave_S              =   0.0000000000000E+00
(PID.TID 0000.0001) %MON thSI_Tsrf_ave_N              =  -7.4798996315947E+00
(PID.TID 0000.0001) %MON thSI_Tsrf_min_S              =   0.0000000000000E+00
(PID.TID 0000.0001) %MON thSI_Tsrf_min_N              =  -8.0850801026462E+00
(PID.TID 0000.0001) %MON thSI_Tsrf_max_S              =   0.0000000000000E+00
(PID.TID 0000.0001) %MON thSI_Tsrf_max_N              =  -3.5774689705279E+00
(PID.TID 0000.0001) %MON thSI_Tic1_ave_G              =  -5.4575697073456E+00
(PID.TID 0000.0001) %MON thSI_Tic1_ave_S              =   0.0000000000000E+00
(PID.TID 0000.0001) %MON thSI_Tic1_ave_N              =  -5.4575697073456E+00
(PID.TID 0000.0001) %MON thSI_Tic1_min_S              =   0.0000000000000E+00
(PID.TID 0000.0001) %MON thSI_Tic1_min_N              =  -5.6042585072487E+00
(PID.TID 0000.0001) %MON thSI_Tic1_max_S              =   0.0000000000000E+00
(PID.TID 0000.0001) %MON thSI_Tic1_max_N              =  -3.1039252251307E+00
(PID.TID 0000.0001) %MON thSI_Tic2_ave_G              =  -2.6746077792939E+00
(PID.TID 0000.0001) %MON thSI_Tic2_ave_S              =   0.0000000000000E+00
(PID.TID 0000.0001) %MON thSI_Tic2_ave_N              =  -2.6746077792939E+00
(PID.TID 0000.0001) %MON thSI_Tic2_min_S              =   0.0000000000000E+00
(PID.TID 0000.0001) %MON thSI_Tic2_min_N              =  -2.7793838333823E+00
(PID.TID 0000.0001) %MON thSI_Tic2_max_S              =   0.0000000000000E+00
(PID.TID 0000.0001) %MON thSI_Tic2_max_N              =  -2.1564435168913E+00
(PID.TID 0000.0001) %MON thSI_TotEnerg_G              =  -7.1566333969638E+18
(PID.TID 0000.0001) // =======================================================
(PID.TID 0000.0001) // End MONITOR Therm.SeaIce statistics
(PID.TID 0000.0001) // =======================================================
 cg2d: Sum(rhs),rhsMax =   2.83762346953154E-10  2.57258194686913E+04
(PID.TID 0000.0001)      cg2d_init_res =   1.27129291583677E+04
(PID.TID 0000.0001)      cg2d_iters(min,last) =      -1      16
(PID.TID 0000.0001)      cg2d_last_res =   8.51724795335940E-11
(PID.TID 0000.0001) // =======================================================
(PID.TID 0000.0001) // Begin MONITOR dynamic field statistics
(PID.TID 0000.0001) // =======================================================
(PID.TID 0000.0001) %MON time_tsnumber                =                    17
(PID.TID 0000.0001) %MON time_secondsf                =   7.6500000000000E+03
(PID.TID 0000.0001) %MON dynstat_eta_max              =   4.9060183787923E+03
(PID.TID 0000.0001) %MON dynstat_eta_min              =  -1.2206587857724E+03
(PID.TID 0000.0001) %MON dynstat_eta_mean             =  -2.6106856394150E-14
(PID.TID 0000.0001) %MON dynstat_eta_sd               =   5.5902841974405E+02
(PID.TID 0000.0001) %MON dynstat_eta_del2             =   4.5122805827478E+00
(PID.TID 0000.0001) %MON dynstat_uvel_max             =   5.9310909908345E+00
(PID.TID 0000.0001) %MON dynstat_uvel_min             =  -6.4985293395015E+00
(PID.TID 0000.0001) %MON dynstat_uvel_mean            =  -9.3136122376270E-03
(PID.TID 0000.0001) %MON dynstat_uvel_sd              =   7.9921888950160E-01
(PID.TID 0000.0001) %MON dynstat_uvel_del2            =   1.0159709838980E-03
(PID.TID 0000.0001) %MON dynstat_vvel_max             =   5.3208950451627E+00
(PID.TID 0000.0001) %MON dynstat_vvel_min             =  -5.8738886437211E+00
(PID.TID 0000.0001) %MON dynstat_vvel_mean            =   2.4867411431394E-02
(PID.TID 0000.0001) %MON dynstat_vvel_sd              =   8.1509402684707E-01
(PID.TID 0000.0001) %MON dynstat_vvel_del2            =   1.0065500891124E-03
(PID.TID 0000.0001) %MON dynstat_wvel_max             =   1.7222031427466E-01
(PID.TID 0000.0001) %MON dynstat_wvel_min             =  -1.2213395333594E-01
(PID.TID 0000.0001) %MON dynstat_wvel_mean            =  -4.8999874569517E-04
(PID.TID 0000.0001) %MON dynstat_wvel_sd              =   8.3455166585536E-03
(PID.TID 0000.0001) %MON dynstat_wvel_del2            =   8.9873328324167E-05
(PID.TID 0000.0001) %MON dynstat_theta_max            =   4.3815743455761E+02
(PID.TID 0000.0001) %MON dynstat_theta_min            =   2.8546930790037E+02
(PID.TID 0000.0001) %MON dynstat_theta_mean           =   3.3170044015935E+02
(PID.TID 0000.0001) %MON dynstat_theta_sd             =   4.7437204649145E+01
(PID.TID 0000.0001) %MON dynstat_theta_del2           =   1.3534524260791E-03
(PID.TID 0000.0001) %MON dynstat_salt_max             =   3.9379202559216E+00
(PID.TID 0000.0001) %MON dynstat_salt_min             =  -3.5862404194875E-03
(PID.TID 0000.0001) %MON dynstat_salt_mean            =   6.3043689934766E-02
(PID.TID 0000.0001) %MON dynstat_salt_sd              =   2.5834000608823E-01
(PID.TID 0000.0001) %MON dynstat_salt_del2            =   8.7468789274833E-04
(PID.TID 0000.0001) %MON advcfl_uvel_max              =   9.1609245047225E-03
(PID.TID 0000.0001) %MON advcfl_vvel_max              =   8.3729205244968E-03
(PID.TID 0000.0001) %MON advcfl_wvel_max              =   3.7485061671271E-03
(PID.TID 0000.0001) %MON advcfl_W_hf_max              =   6.6204330643330E-03
(PID.TID 0000.0001) %MON am_eta_mean                  =  -6.1512074619971E+09
(PID.TID 0000.0001) %MON am_uZo_mean                  =   6.1197112762215E+09
(PID.TID 0000.0001) %MON am_tot_mean                  =  -3.1496185775547E+07
(PID.TID 0000.0001) %MON pe_b_mean                    =  -1.1172716468851E+00
(PID.TID 0000.0001) %MON ke_max                       =   2.5040740060083E+01
(PID.TID 0000.0001) %MON ke_mean                      =   6.4806549919978E-01
(PID.TID 0000.0001) %MON ke_vol                       =   4.9523908919847E+19
(PID.TID 0000.0001) %MON vort_r_min                   =  -2.6021416055878E-05
(PID.TID 0000.0001) %MON vort_r_max                   =   1.3543181353360E-05
(PID.TID 0000.0001) %MON vort_a_mean                  =   6.7242814765289E-08
(PID.TID 0000.0001) %MON vort_a_sd                    =   8.3970254542036E-05
(PID.TID 0000.0001) %MON vort_p_mean                  =   6.8939459780891E-08
(PID.TID 0000.0001) %MON vort_p_sd                    =   9.1909585237455E-05
(PID.TID 0000.0001) %MON surfExpan_theta_mean         =   4.4496481734526E-02
(PID.TID 0000.0001) %MON surfExpan_salt_mean          =  -3.5149751676615E-04
(PID.TID 0000.0001) %MON surfExpan_Heat_mean          =  -4.0836182047351E+00
(PID.TID 0000.0001) %MON En_Budget_T2PE_mean          =   7.3654303537170E+00
(PID.TID 0000.0001) // =======================================================
(PID.TID 0000.0001) // End MONITOR dynamic field statistics
(PID.TID 0000.0001) // =======================================================
(PID.TID 0000.0001) // =======================================================
(PID.TID 0000.0001) // Begin MONITOR Land statistics
(PID.TID 0000.0001) // =======================================================
(PID.TID 0000.0001) %MON land_time_sec                =   7.6500000000000E+03
(PID.TID 0000.0001) %MON land_SnwH_ave_G              =   1.5323137223877E-01
(PID.TID 0000.0001) %MON land_SnwH_ave_S              =   5.5904814201232E-01
(PID.TID 0000.0001) %MON land_SnwH_ave_T              =   0.0000000000000E+00
(PID.TID 0000.0001) %MON land_SnwH_ave_N              =   1.2391028872826E-01
(PID.TID 0000.0001) %MON land_SnwH_max_S              =   9.9999090756277E-01
(PID.TID 0000.0001) %MON land_SnwH_max_T              =   0.0000000000000E+00
(PID.TID 0000.0001) %MON land_SnwH_max_N              =   9.9999884810273E-01
(PID.TID 0000.0001) %MON land_Tsrf_ave_G              =  -7.9439006016233E+00
(PID.TID 0000.0001) %MON land_Tsrf_ave_S              =  -7.1886451829620E+00
(PID.TID 0000.0001) %MON land_Tsrf_ave_T              =   1.1281493682793E+01
(PID.TID 0000.0001) %MON land_Tsrf_ave_N              =  -2.1027053751554E+01
(PID.TID 0000.0001) %MON land_Tsrf_min_S              =  -3.3816460702379E+01
(PID.TID 0000.0001) %MON land_Tsrf_min_T              =  -4.6305261546551E+00
(PID.TID 0000.0001) %MON land_Tsrf_min_N              =  -5.2019470746539E+01
(PID.TID 0000.0001) %MON land_Tsrf_max_S              =   2.1572644220879E+01
(PID.TID 0000.0001) %MON land_Tsrf_max_T              =   2.2424903583561E+01
(PID.TID 0000.0001) %MON land_Tsrf_max_N              =   9.7214650700255E+00
(PID.TID 0000.0001) %MON land_Tgr1_ave_G              =  -6.6671098039992E+00
(PID.TID 0000.0001) %MON land_Tgr1_ave_S              =  -6.8247247838236E+00
(PID.TID 0000.0001) %MON land_Tgr1_ave_T              =   1.1281493682793E+01
(PID.TID 0000.0001) %MON land_Tgr1_ave_N              =  -1.8601530013990E+01
(PID.TID 0000.0001) %MON land_Tgr1_min_S              =  -3.9185194178013E+01
(PID.TID 0000.0001) %MON land_Tgr1_min_T              =  -4.6305261546551E+00
(PID.TID 0000.0001) %MON land_Tgr1_min_N              =  -5.4795057513287E+01
(PID.TID 0000.0001) %MON land_Tgr1_max_S              =   2.1572644220879E+01
(PID.TID 0000.0001) %MON land_Tgr1_max_T              =   2.2424903583561E+01
(PID.TID 0000.0001) %MON land_Tgr1_max_N              =   9.7214650700255E+00
(PID.TID 0000.0001) %MON land_Tgr2_ave_G              =   4.2051118643710E+00
(PID.TID 0000.0001) %MON land_Tgr2_ave_S              =  -1.8728216283675E+01
(PID.TID 0000.0001) %MON land_Tgr2_ave_T              =   2.2010899921247E+01
(PID.TID 0000.0001) %MON land_Tgr2_ave_N              =  -2.4563782448776E-01
(PID.TID 0000.0001) %MON land_Tgr2_min_S              =  -6.4754937467586E+01
(PID.TID 0000.0001) %MON land_Tgr2_min_T              =  -9.7043254864290E+00
(PID.TID 0000.0001) %MON land_Tgr2_min_N              =  -4.0197689312912E+01
(PID.TID 0000.0001) %MON land_Tgr2_max_S              =   2.3360470446015E+01
(PID.TID 0000.0001) %MON land_Tgr2_max_T              =   3.1355131427596E+01
(PID.TID 0000.0001) %MON land_Tgr2_max_N              =   2.9825705092387E+01
(PID.TID 0000.0001) %MON land_TotEnerg_G              =  -6.3365874362919E+21
(PID.TID 0000.0001) %MON land_TotEnerg_S              =  -5.0012297560688E+21
(PID.TID 0000.0001) %MON land_TotEnerg_T              =   7.2863729262601E+21
(PID.TID 0000.0001) %MON land_TotEnerg_N              =  -8.6217306064832E+21
(PID.TID 0000.0001) %MON land_grdW_ave_G              =   4.8682517981740E-01
(PID.TID 0000.0001) %MON land_grdW_ave_S              =   3.0858960508820E-01
(PID.TID 0000.0001) %MON land_grdW_ave_T              =   5.6434742143231E-01
(PID.TID 0000.0001) %MON land_grdW_ave_N              =   4.9287664119277E-01
(PID.TID 0000.0001) %MON land_grdW_min_S              =   2.6823015860646E-02
(PID.TID 0000.0001) %MON land_grdW_min_T              =   0.0000000000000E+00
(PID.TID 0000.0001) %MON land_grdW_min_N              =   0.0000000000000E+00
(PID.TID 0000.0001) // =======================================================
(PID.TID 0000.0001) // End MONITOR Land statistics
(PID.TID 0000.0001) // =======================================================
(PID.TID 0000.0001) // =======================================================
(PID.TID 0000.0001) // Begin MONITOR Therm.SeaIce statistics
(PID.TID 0000.0001) // =======================================================
(PID.TID 0000.0001) %MON thSI_time_sec                =   7.6500000000000E+03
(PID.TID 0000.0001) %MON thSI_Ice_Area_G              =   1.9648949775771E+11
(PID.TID 0000.0001) %MON thSI_Ice_Area_S              =   0.0000000000000E+00
(PID.TID 0000.0001) %MON thSI_Ice_Area_N              =   1.9648949775771E+11
(PID.TID 0000.0001) %MON thSI_IceH_ave_G              =   1.2001450689447E-01
(PID.TID 0000.0001) %MON thSI_IceH_ave_S              =   0.0000000000000E+00
(PID.TID 0000.0001) %MON thSI_IceH_ave_N              =   1.2001450689447E-01
(PID.TID 0000.0001) %MON thSI_IceH_max_S              =   0.0000000000000E+00
(PID.TID 0000.0001) %MON thSI_IceH_max_N              =   1.4389391913073E-01
(PID.TID 0000.0001) %MON thSI_SnwH_ave_G              =   0.0000000000000E+00
(PID.TID 0000.0001) %MON thSI_SnwH_ave_S              =   0.0000000000000E+00
(PID.TID 0000.0001) %MON thSI_SnwH_ave_N              =   0.0000000000000E+00
(PID.TID 0000.0001) %MON thSI_SnwH_max_S              =   0.0000000000000E+00
(PID.TID 0000.0001) %MON thSI_SnwH_max_N              =   0.0000000000000E+00
(PID.TID 0000.0001) %MON thSI_Tsrf_ave_G              =  -7.5886069327146E+00
(PID.TID 0000.0001) %MON thSI_Tsrf_ave_S              =   0.0000000000000E+00
(PID.TID 0000.0001) %MON thSI_Tsrf_ave_N              =  -7.5886069327146E+00
(PID.TID 0000.0001) %MON thSI_Tsrf_min_S              =   0.0000000000000E+00
(PID.TID 0000.0001) %MON thSI_Tsrf_min_N              =  -8.2455206669267E+00
(PID.TID 0000.0001) %MON thSI_Tsrf_max_S              =   0.0000000000000E+00
(PID.TID 0000.0001) %MON thSI_Tsrf_max_N              =  -3.6004361451942E+00
(PID.TID 0000.0001) %MON thSI_Tic1_ave_G              =  -5.5977436942839E+00
(PID.TID 0000.0001) %MON thSI_Tic1_ave_S              =   0.0000000000000E+00
(PID.TID 0000.0001) %MON thSI_Tic1_ave_N              =  -5.5977436942839E+00
(PID.TID 0000.0001) %MON thSI_Tic1_min_S              =   0.0000000000000E+00
(PID.TID 0000.0001) %MON thSI_Tic1_min_N              =  -5.7537199555133E+00
(PID.TID 0000.0001) %MON thSI_Tic1_max_S              =   0.0000000000000E+00
(PID.TID 0000.0001) %MON thSI_Tic1_max_N              =  -3.1211166442087E+00
(PID.TID 0000.0001) %MON thSI_Tic2_ave_G              =  -2.7217280279203E+00
(PID.TID 0000.0001) %MON thSI_Tic2_ave_S              =   0.0000000000000E+00
(PID.TID 0000.0001) %MON thSI_Tic2_ave_N              =  -2.7217280279203E+00
(PID.TID 0000.0001) %MON thSI_Tic2_min_S              =   0.0000000000000E+00
(PID.TID 0000.0001) %MON thSI_Tic2_min_N              =  -2.8318797007283E+00
(PID.TID 0000.0001) %MON thSI_Tic2_max_S              =   0.0000000000000E+00
(PID.TID 0000.0001) %MON thSI_Tic2_max_N              =  -2.1621589039399E+00
(PID.TID 0000.0001) %MON thSI_TotEnerg_G              =  -7.2409918546863E+18
(PID.TID 0000.0001) // =======================================================
(PID.TID 0000.0001) // End MONITOR Therm.SeaIce statistics
(PID.TID 0000.0001) // =======================================================
 cg2d: Sum(rhs),rhsMax =  -3.27418092638254E-10  2.63719624398620E+04
(PID.TID 0000.0001)      cg2d_init_res =   1.24526962607477E+04
(PID.TID 0000.0001)      cg2d_iters(min,last) =      -1      16
(PID.TID 0000.0001)      cg2d_last_res =   8.28301549338342E-11
(PID.TID 0000.0001) // =======================================================
(PID.TID 0000.0001) // Begin MONITOR dynamic field statistics
(PID.TID 0000.0001) // =======================================================
(PID.TID 0000.0001) %MON time_tsnumber                =                    18
(PID.TID 0000.0001) %MON time_secondsf                =   8.1000000000000E+03
(PID.TID 0000.0001) %MON dynstat_eta_max              =   4.8379875096208E+03
(PID.TID 0000.0001) %MON dynstat_eta_min              =  -1.1354238166847E+03
(PID.TID 0000.0001) %MON dynstat_eta_mean             =   1.0844386502186E-14
(PID.TID 0000.0001) %MON dynstat_eta_sd               =   5.6207143444486E+02
(PID.TID 0000.0001) %MON dynstat_eta_del2             =   4.5018237325296E+00
(PID.TID 0000.0001) %MON dynstat_uvel_max             =   5.9600120824926E+00
(PID.TID 0000.0001) %MON dynstat_uvel_min             =  -6.3417035024968E+00
(PID.TID 0000.0001) %MON dynstat_uvel_mean            =  -8.6787981487566E-03
(PID.TID 0000.0001) %MON dynstat_uvel_sd              =   8.0731966441997E-01
(PID.TID 0000.0001) %MON dynstat_uvel_del2            =   1.0382626674249E-03
(PID.TID 0000.0001) %MON dynstat_vvel_max             =   4.8009668213937E+00
(PID.TID 0000.0001) %MON dynstat_vvel_min             =  -5.7257261365177E+00
(PID.TID 0000.0001) %MON dynstat_vvel_mean            =   2.6058025803913E-02
(PID.TID 0000.0001) %MON dynstat_vvel_sd              =   8.0850121720932E-01
(PID.TID 0000.0001) %MON dynstat_vvel_del2            =   1.0066411718025E-03
(PID.TID 0000.0001) %MON dynstat_wvel_max             =   1.8116447358155E-01
(PID.TID 0000.0001) %MON dynstat_wvel_min             =  -1.0776021838466E-01
(PID.TID 0000.0001) %MON dynstat_wvel_mean            =  -3.2872632500272E-04
(PID.TID 0000.0001) %MON dynstat_wvel_sd              =   8.4058748156890E-03
(PID.TID 0000.0001) %MON dynstat_wvel_del2            =   9.2147562936474E-05
(PID.TID 0000.0001) %MON dynstat_theta_max            =   4.3823333214882E+02
(PID.TID 0000.0001) %MON dynstat_theta_min            =   2.8523829896238E+02
(PID.TID 0000.0001) %MON dynstat_theta_mean           =   3.3169870082594E+02
(PID.TID 0000.0001) %MON dynstat_theta_sd             =   4.7439138742396E+01
(PID.TID 0000.0001) %MON dynstat_theta_del2           =   1.4167067709908E-03
(PID.TID 0000.0001) %MON dynstat_salt_max             =   4.0287495992913E+00
(PID.TID 0000.0001) %MON dynstat_salt_min             =  -3.9683100422650E-03
(PID.TID 0000.0001) %MON dynstat_salt_mean            =   6.6522360359759E-02
(PID.TID 0000.0001) %MON dynstat_salt_sd              =   2.7129165732722E-01
(PID.TID 0000.0001) %MON dynstat_salt_del2            =   9.0323341840056E-04
(PID.TID 0000.0001) %MON advcfl_uvel_max              =   9.0072343909042E-03
(PID.TID 0000.0001) %MON advcfl_vvel_max              =   8.1617226328155E-03
(PID.TID 0000.0001) %MON advcfl_wvel_max              =   3.3547662663479E-03
(PID.TID 0000.0001) %MON advcfl_W_hf_max              =   6.6949771422245E-03
(PID.TID 0000.0001) %MON am_eta_mean                  =  -6.7928737486683E+09
(PID.TID 0000.0001) %MON am_uZo_mean                  =   6.7543848472135E+09
(PID.TID 0000.0001) %MON am_tot_mean                  =  -3.8488901454782E+07
(PID.TID 0000.0001) %MON pe_b_mean                    =  -1.1283306867456E+00
(PID.TID 0000.0001) %MON ke_max                       =   2.3822610326801E+01
(PID.TID 0000.0001) %MON ke_mean                      =   6.4923556708937E-01
(PID.TID 0000.0001) %MON ke_vol                       =   4.9523908919847E+19
(PID.TID 0000.0001) %MON vort_r_min                   =  -2.4340954247355E-05
(PID.TID 0000.0001) %MON vort_r_max                   =   1.1662422445792E-05
(PID.TID 0000.0001) %MON vort_a_mean                  =   6.7242814765303E-08
(PID.TID 0000.0001) %MON vort_a_sd                    =   8.3972947436935E-05
(PID.TID 0000.0001) %MON vort_p_mean                  =   6.8939461102028E-08
(PID.TID 0000.0001) %MON vort_p_sd                    =   9.1905699841003E-05
(PID.TID 0000.0001) %MON surfExpan_theta_mean         =   2.8611769105478E-02
(PID.TID 0000.0001) %MON surfExpan_salt_mean          =  -4.0583357637330E-04
(PID.TID 0000.0001) %MON surfExpan_Heat_mean          =  -2.7672097245432E+00
(PID.TID 0000.0001) %MON En_Budget_T2PE_mean          =   4.8835542235559E+00
(PID.TID 0000.0001) // =======================================================
(PID.TID 0000.0001) // End MONITOR dynamic field statistics
(PID.TID 0000.0001) // =======================================================
(PID.TID 0000.0001) // =======================================================
(PID.TID 0000.0001) // Begin MONITOR Land statistics
(PID.TID 0000.0001) // =======================================================
(PID.TID 0000.0001) %MON land_time_sec                =   8.1000000000000E+03
(PID.TID 0000.0001) %MON land_SnwH_ave_G              =   1.5323040065137E-01
(PID.TID 0000.0001) %MON land_SnwH_ave_S              =   5.5904727071493E-01
(PID.TID 0000.0001) %MON land_SnwH_ave_T              =   0.0000000000000E+00
(PID.TID 0000.0001) %MON land_SnwH_ave_N              =   1.2390863580991E-01
(PID.TID 0000.0001) %MON land_SnwH_max_S              =   9.9999034262960E-01
(PID.TID 0000.0001) %MON land_SnwH_max_T              =   0.0000000000000E+00
(PID.TID 0000.0001) %MON land_SnwH_max_N              =   9.9999878445184E-01
(PID.TID 0000.0001) %MON land_Tsrf_ave_G              =  -8.0246003788447E+00
(PID.TID 0000.0001) %MON land_Tsrf_ave_S              =  -7.2456594260196E+00
(PID.TID 0000.0001) %MON land_Tsrf_ave_T              =   1.1111124118789E+01
(PID.TID 0000.0001) %MON land_Tsrf_ave_N              =  -2.1055558125270E+01
(PID.TID 0000.0001) %MON land_Tsrf_min_S              =  -3.3780919119997E+01
(PID.TID 0000.0001) %MON land_Tsrf_min_T              =  -4.4847301065919E+00
(PID.TID 0000.0001) %MON land_Tsrf_min_N              =  -5.2028090943739E+01
(PID.TID 0000.0001) %MON land_Tsrf_max_S              =   2.1357619859639E+01
(PID.TID 0000.0001) %MON land_Tsrf_max_T              =   2.2107607578979E+01
(PID.TID 0000.0001) %MON land_Tsrf_max_N              =   9.5345926454309E+00
(PID.TID 0000.0001) %MON land_Tgr1_ave_G              =  -6.7523856614739E+00
(PID.TID 0000.0001) %MON land_Tgr1_ave_S              =  -6.8874051516068E+00
(PID.TID 0000.0001) %MON land_Tgr1_ave_T              =   1.1111124118789E+01
(PID.TID 0000.0001) %MON land_Tgr1_ave_N              =  -1.8637312635987E+01
(PID.TID 0000.0001) %MON land_Tgr1_min_S              =  -3.9196374250176E+01
(PID.TID 0000.0001) %MON land_Tgr1_min_T              =  -4.4847301065919E+00
(PID.TID 0000.0001) %MON land_Tgr1_min_N              =  -5.4782408250632E+01
(PID.TID 0000.0001) %MON land_Tgr1_max_S              =   2.1357619859639E+01
(PID.TID 0000.0001) %MON land_Tgr1_max_T              =   2.2107607578979E+01
(PID.TID 0000.0001) %MON land_Tgr1_max_N              =   9.5345926454309E+00
(PID.TID 0000.0001) %MON land_Tgr2_ave_G              =   4.2049438558520E+00
(PID.TID 0000.0001) %MON land_Tgr2_ave_S              =  -1.8728018077715E+01
(PID.TID 0000.0001) %MON land_Tgr2_ave_T              =   2.2010722617552E+01
(PID.TID 0000.0001) %MON land_Tgr2_ave_N              =  -2.4591842370707E-01
(PID.TID 0000.0001) %MON land_Tgr2_min_S              =  -6.4754506536678E+01
(PID.TID 0000.0001) %MON land_Tgr2_min_T              =  -9.7042595353503E+00
(PID.TID 0000.0001) %MON land_Tgr2_min_N              =  -4.0197926492768E+01
(PID.TID 0000.0001) %MON land_Tgr2_max_S              =   2.3360425547320E+01
(PID.TID 0000.0001) %MON land_Tgr2_max_T              =   3.1354725075338E+01
(PID.TID 0000.0001) %MON land_Tgr2_max_N              =   2.9825218013206E+01
(PID.TID 0000.0001) %MON land_TotEnerg_G              =  -6.3389636419379E+21
(PID.TID 0000.0001) %MON land_TotEnerg_S              =  -5.0014242956149E+21
(PID.TID 0000.0001) %MON land_TotEnerg_T              =   7.2848907750394E+21
(PID.TID 0000.0001) %MON land_TotEnerg_N              =  -8.6224301213624E+21
(PID.TID 0000.0001) %MON land_grdW_ave_G              =   4.8681615558164E-01
(PID.TID 0000.0001) %MON land_grdW_ave_S              =   3.0858110025836E-01
(PID.TID 0000.0001) %MON land_grdW_ave_T              =   5.6432509739004E-01
(PID.TID 0000.0001) %MON land_grdW_ave_N              =   4.9287632968454E-01
(PID.TID 0000.0001) %MON land_grdW_min_S              =   2.6906421114984E-02
(PID.TID 0000.0001) %MON land_grdW_min_T              =   0.0000000000000E+00
(PID.TID 0000.0001) %MON land_grdW_min_N              =   0.0000000000000E+00
(PID.TID 0000.0001) // =======================================================
(PID.TID 0000.0001) // End MONITOR Land statistics
(PID.TID 0000.0001) // =======================================================
(PID.TID 0000.0001) // =======================================================
(PID.TID 0000.0001) // Begin MONITOR Therm.SeaIce statistics
(PID.TID 0000.0001) // =======================================================
(PID.TID 0000.0001) %MON thSI_time_sec                =   8.1000000000000E+03
(PID.TID 0000.0001) %MON thSI_Ice_Area_G              =   1.9925474316463E+11
(PID.TID 0000.0001) %MON thSI_Ice_Area_S              =   0.0000000000000E+00
(PID.TID 0000.0001) %MON thSI_Ice_Area_N              =   1.9925474316463E+11
(PID.TID 0000.0001) %MON thSI_IceH_ave_G              =   1.1963700482681E-01
(PID.TID 0000.0001) %MON thSI_IceH_ave_S              =   0.0000000000000E+00
(PID.TID 0000.0001) %MON thSI_IceH_ave_N              =   1.1963700482681E-01
(PID.TID 0000.0001) %MON thSI_IceH_max_S              =   0.0000000000000E+00
(PID.TID 0000.0001) %MON thSI_IceH_max_N              =   1.4422211927774E-01
(PID.TID 0000.0001) %MON thSI_SnwH_ave_G              =   0.0000000000000E+00
(PID.TID 0000.0001) %MON thSI_SnwH_ave_S              =   0.0000000000000E+00
(PID.TID 0000.0001) %MON thSI_SnwH_ave_N              =   0.0000000000000E+00
(PID.TID 0000.0001) %MON thSI_SnwH_max_S              =   0.0000000000000E+00
(PID.TID 0000.0001) %MON thSI_SnwH_max_N              =   0.0000000000000E+00
(PID.TID 0000.0001) %MON thSI_Tsrf_ave_G              =  -7.6740745565380E+00
(PID.TID 0000.0001) %MON thSI_Tsrf_ave_S              =   0.0000000000000E+00
(PID.TID 0000.0001) %MON thSI_Tsrf_ave_N              =  -7.6740745565380E+00
(PID.TID 0000.0001) %MON thSI_Tsrf_min_S              =   0.0000000000000E+00
(PID.TID 0000.0001) %MON thSI_Tsrf_min_N              =  -8.3755394331965E+00
(PID.TID 0000.0001) %MON thSI_Tsrf_max_S              =   0.0000000000000E+00
(PID.TID 0000.0001) %MON thSI_Tsrf_max_N              =  -3.6324983492796E+00
(PID.TID 0000.0001) %MON thSI_Tic1_ave_G              =  -5.7421654704324E+00
(PID.TID 0000.0001) %MON thSI_Tic1_ave_S              =   0.0000000000000E+00
(PID.TID 0000.0001) %MON thSI_Tic1_ave_N              =  -5.7421654704324E+00
(PID.TID 0000.0001) %MON thSI_Tic1_min_S              =   0.0000000000000E+00
(PID.TID 0000.0001) %MON thSI_Tic1_min_N              =  -5.9028130137213E+00
(PID.TID 0000.0001) %MON thSI_Tic1_max_S              =   0.0000000000000E+00
(PID.TID 0000.0001) %MON thSI_Tic1_max_N              =  -3.1446686206454E+00
(PID.TID 0000.0001) %MON thSI_Tic2_ave_G              =  -2.7893693074311E+00
(PID.TID 0000.0001) %MON thSI_Tic2_ave_S              =   0.0000000000000E+00
(PID.TID 0000.0001) %MON thSI_Tic2_ave_N              =  -2.7893693074311E+00
(PID.TID 0000.0001) %MON thSI_Tic2_min_S              =   0.0000000000000E+00
(PID.TID 0000.0001) %MON thSI_Tic2_min_N              =  -2.8993394394760E+00
(PID.TID 0000.0001) %MON thSI_Tic2_max_S              =   0.0000000000000E+00
(PID.TID 0000.0001) %MON thSI_Tic2_max_N              =  -2.1693228643095E+00
(PID.TID 0000.0001) %MON thSI_TotEnerg_G              =  -7.3254049188447E+18
(PID.TID 0000.0001) // =======================================================
(PID.TID 0000.0001) // End MONITOR Therm.SeaIce statistics
(PID.TID 0000.0001) // =======================================================
 cg2d: Sum(rhs),rhsMax =   1.20780896395445E-09  2.67488919050995E+04
(PID.TID 0000.0001)      cg2d_init_res =   1.22910237927263E+04
(PID.TID 0000.0001)      cg2d_iters(min,last) =      -1      16
(PID.TID 0000.0001)      cg2d_last_res =   8.09227491431245E-11
(PID.TID 0000.0001) // =======================================================
(PID.TID 0000.0001) // Begin MONITOR dynamic field statistics
(PID.TID 0000.0001) // =======================================================
(PID.TID 0000.0001) %MON time_tsnumber                =                    19
(PID.TID 0000.0001) %MON time_secondsf                =   8.5500000000000E+03
(PID.TID 0000.0001) %MON dynstat_eta_max              =   4.7617778426768E+03
(PID.TID 0000.0001) %MON dynstat_eta_min              =  -1.0793855436426E+03
(PID.TID 0000.0001) %MON dynstat_eta_mean             =  -1.7270689614592E-14
(PID.TID 0000.0001) %MON dynstat_eta_sd               =   5.6249299632345E+02
(PID.TID 0000.0001) %MON dynstat_eta_del2             =   4.4905721677591E+00
(PID.TID 0000.0001) %MON dynstat_uvel_max             =   5.9707996304911E+00
(PID.TID 0000.0001) %MON dynstat_uvel_min             =  -6.3945695648133E+00
(PID.TID 0000.0001) %MON dynstat_uvel_mean            =  -7.6318792028323E-03
(PID.TID 0000.0001) %MON dynstat_uvel_sd              =   8.1550837818313E-01
(PID.TID 0000.0001) %MON dynstat_uvel_del2            =   1.0619452105631E-03
(PID.TID 0000.0001) %MON dynstat_vvel_max             =   4.4144083353192E+00
(PID.TID 0000.0001) %MON dynstat_vvel_min             =  -5.5576990578740E+00
(PID.TID 0000.0001) %MON dynstat_vvel_mean            =   2.7044635615735E-02
(PID.TID 0000.0001) %MON dynstat_vvel_sd              =   8.0422509311326E-01
(PID.TID 0000.0001) %MON dynstat_vvel_del2            =   1.0145171521163E-03
(PID.TID 0000.0001) %MON dynstat_wvel_max             =   2.2487425731121E-01
(PID.TID 0000.0001) %MON dynstat_wvel_min             =  -9.8372078942943E-02
(PID.TID 0000.0001) %MON dynstat_wvel_mean            =  -1.7253224384741E-04
(PID.TID 0000.0001) %MON dynstat_wvel_sd              =   8.6890781574901E-03
(PID.TID 0000.0001) %MON dynstat_wvel_del2            =   9.5953400112314E-05
(PID.TID 0000.0001) %MON dynstat_theta_max            =   4.3828364372619E+02
(PID.TID 0000.0001) %MON dynstat_theta_min            =   2.8500898370737E+02
(PID.TID 0000.0001) %MON dynstat_theta_mean           =   3.3169691968716E+02
(PID.TID 0000.0001) %MON dynstat_theta_sd             =   4.7441094430166E+01
(PID.TID 0000.0001) %MON dynstat_theta_del2           =   1.4791199510312E-03
(PID.TID 0000.0001) %MON dynstat_salt_max             =   4.1128893024190E+00
(PID.TID 0000.0001) %MON dynstat_salt_min             =  -4.3679809978693E-03
(PID.TID 0000.0001) %MON dynstat_salt_mean            =   6.9984954943386E-02
(PID.TID 0000.0001) %MON dynstat_salt_sd              =   2.8409543571130E-01
(PID.TID 0000.0001) %MON dynstat_salt_del2            =   9.3121715292957E-04
(PID.TID 0000.0001) %MON advcfl_uvel_max              =   9.1205683558739E-03
(PID.TID 0000.0001) %MON advcfl_vvel_max              =   7.9143801610772E-03
(PID.TID 0000.0001) %MON advcfl_wvel_max              =   3.6797605741835E-03
(PID.TID 0000.0001) %MON advcfl_W_hf_max              =   7.2259760046459E-03
(PID.TID 0000.0001) %MON am_eta_mean                  =  -7.4481008932778E+09
(PID.TID 0000.0001) %MON am_uZo_mean                  =   7.4021741915284E+09
(PID.TID 0000.0001) %MON am_tot_mean                  =  -4.5926701749476E+07
(PID.TID 0000.0001) %MON pe_b_mean                    =  -1.1409115399293E+00
(PID.TID 0000.0001) %MON ke_max                       =   2.2401498007023E+01
(PID.TID 0000.0001) %MON ke_mean                      =   6.5242818674586E-01
(PID.TID 0000.0001) %MON ke_vol                       =   4.9523908919847E+19
(PID.TID 0000.0001) %MON vort_r_min                   =  -2.3168219366575E-05
(PID.TID 0000.0001) %MON vort_r_max                   =   9.4247709924650E-06
(PID.TID 0000.0001) %MON vort_a_mean                  =   6.7242814765298E-08
(PID.TID 0000.0001) %MON vort_a_sd                    =   8.3975653926482E-05
(PID.TID 0000.0001) %MON vort_p_mean                  =   6.8939462249765E-08
(PID.TID 0000.0001) %MON vort_p_sd                    =   9.1898563126534E-05
(PID.TID 0000.0001) %MON surfExpan_theta_mean         =   1.3316577458718E-02
(PID.TID 0000.0001) %MON surfExpan_salt_mean          =  -4.6671981172759E-04
(PID.TID 0000.0001) %MON surfExpan_Heat_mean          =  -1.4929180510724E+00
(PID.TID 0000.0001) %MON En_Budget_T2PE_mean          =   2.4857949645136E+00
(PID.TID 0000.0001) // =======================================================
(PID.TID 0000.0001) // End MONITOR dynamic field statistics
(PID.TID 0000.0001) // =======================================================
(PID.TID 0000.0001) // =======================================================
(PID.TID 0000.0001) // Begin MONITOR Land statistics
(PID.TID 0000.0001) // =======================================================
(PID.TID 0000.0001) %MON land_time_sec                =   8.5500000000000E+03
(PID.TID 0000.0001) %MON land_SnwH_ave_G              =   1.5322943214016E-01
(PID.TID 0000.0001) %MON land_SnwH_ave_S              =   5.5904640234064E-01
(PID.TID 0000.0001) %MON land_SnwH_ave_T              =   0.0000000000000E+00
(PID.TID 0000.0001) %MON land_SnwH_ave_N              =   1.2390698807158E-01
(PID.TID 0000.0001) %MON land_SnwH_max_S              =   9.9998977757236E-01
(PID.TID 0000.0001) %MON land_SnwH_max_T              =   0.0000000000000E+00
(PID.TID 0000.0001) %MON land_SnwH_max_N              =   9.9999872087961E-01
(PID.TID 0000.0001) %MON land_Tsrf_ave_G              =  -8.0962553284511E+00
(PID.TID 0000.0001) %MON land_Tsrf_ave_S              =  -7.2847010363835E+00
(PID.TID 0000.0001) %MON land_Tsrf_ave_T              =   1.0956934520675E+01
(PID.TID 0000.0001) %MON land_Tsrf_ave_N              =  -2.1082678432439E+01
(PID.TID 0000.0001) %MON land_Tsrf_min_S              =  -3.3762626621685E+01
(PID.TID 0000.0001) %MON land_Tsrf_min_T              =  -4.3433548724923E+00
(PID.TID 0000.0001) %MON land_Tsrf_min_N              =  -5.2035456602826E+01
(PID.TID 0000.0001) %MON land_Tsrf_max_S              =   2.1166324328824E+01
(PID.TID 0000.0001) %MON land_Tsrf_max_T              =   2.1821121711088E+01
(PID.TID 0000.0001) %MON land_Tsrf_max_N              =   9.3574419092281E+00
(PID.TID 0000.0001) %MON land_Tgr1_ave_G              =  -6.8302510759195E+00
(PID.TID 0000.0001) %MON land_Tgr1_ave_S              =  -6.9430738562863E+00
(PID.TID 0000.0001) %MON land_Tgr1_ave_T              =   1.0956934520675E+01
(PID.TID 0000.0001) %MON land_Tgr1_ave_N              =  -1.8671411482636E+01
(PID.TID 0000.0001) %MON land_Tgr1_min_S              =  -3.9207563859388E+01
(PID.TID 0000.0001) %MON land_Tgr1_min_T              =  -4.3433548724923E+00
(PID.TID 0000.0001) %MON land_Tgr1_min_N              =  -5.4769787052882E+01
(PID.TID 0000.0001) %MON land_Tgr1_max_S              =   2.1166324328824E+01
(PID.TID 0000.0001) %MON land_Tgr1_max_T              =   2.1821121711088E+01
(PID.TID 0000.0001) %MON land_Tgr1_max_N              =   9.3574419092281E+00
(PID.TID 0000.0001) %MON land_Tgr2_ave_G              =   4.2047746349478E+00
(PID.TID 0000.0001) %MON land_Tgr2_ave_S              =  -1.8727820755778E+01
(PID.TID 0000.0001) %MON land_Tgr2_ave_T              =   2.2010542977970E+01
(PID.TID 0000.0001) %MON land_Tgr2_ave_N              =  -2.4619959158900E-01
(PID.TID 0000.0001) %MON land_Tgr2_min_S              =  -6.4754075816547E+01
(PID.TID 0000.0001) %MON land_Tgr2_min_T              =  -9.7041917989827E+00
(PID.TID 0000.0001) %MON land_Tgr2_min_N              =  -4.0198163433293E+01
(PID.TID 0000.0001) %MON land_Tgr2_max_S              =   2.3360377046161E+01
(PID.TID 0000.0001) %MON land_Tgr2_max_T              =   3.1354314605144E+01
(PID.TID 0000.0001) %MON land_Tgr2_max_N              =   2.9824724636219E+01
(PID.TID 0000.0001) %MON land_TotEnerg_G              =  -6.3411620449236E+21
(PID.TID 0000.0001) %MON land_TotEnerg_S              =  -5.0015945313389E+21
(PID.TID 0000.0001) %MON land_TotEnerg_T              =   7.2835465712583E+21
(PID.TID 0000.0001) %MON land_TotEnerg_N              =  -8.6231140848430E+21
(PID.TID 0000.0001) %MON land_grdW_ave_G              =   4.8680737246436E-01
(PID.TID 0000.0001) %MON land_grdW_ave_S              =   3.0857273591627E-01
(PID.TID 0000.0001) %MON land_grdW_ave_T              =   5.6430341899702E-01
(PID.TID 0000.0001) %MON land_grdW_ave_N              =   4.9287602180504E-01
(PID.TID 0000.0001) %MON land_grdW_min_S              =   2.6990848735283E-02
(PID.TID 0000.0001) %MON land_grdW_min_T              =   0.0000000000000E+00
(PID.TID 0000.0001) %MON land_grdW_min_N              =   0.0000000000000E+00
(PID.TID 0000.0001) // =======================================================
(PID.TID 0000.0001) // End MONITOR Land statistics
(PID.TID 0000.0001) // =======================================================
(PID.TID 0000.0001) // =======================================================
(PID.TID 0000.0001) // Begin MONITOR Therm.SeaIce statistics
(PID.TID 0000.0001) // =======================================================
(PID.TID 0000.0001) %MON thSI_time_sec                =   8.5500000000000E+03
(PID.TID 0000.0001) %MON thSI_Ice_Area_G              =   2.0196052533160E+11
(PID.TID 0000.0001) %MON thSI_Ice_Area_S              =   0.0000000000000E+00
(PID.TID 0000.0001) %MON thSI_Ice_Area_N              =   2.0196052533160E+11
(PID.TID 0000.0001) %MON thSI_IceH_ave_G              =   1.1931152566028E-01
(PID.TID 0000.0001) %MON thSI_IceH_ave_S              =   0.0000000000000E+00
(PID.TID 0000.0001) %MON thSI_IceH_ave_N              =   1.1931152566028E-01
(PID.TID 0000.0001) %MON thSI_IceH_max_S              =   0.0000000000000E+00
(PID.TID 0000.0001) %MON thSI_IceH_max_N              =   1.4455563797022E-01
(PID.TID 0000.0001) %MON thSI_SnwH_ave_G              =   0.0000000000000E+00
(PID.TID 0000.0001) %MON thSI_SnwH_ave_S              =   0.0000000000000E+00
(PID.TID 0000.0001) %MON thSI_SnwH_ave_N              =   0.0000000000000E+00
(PID.TID 0000.0001) %MON thSI_SnwH_max_S              =   0.0000000000000E+00
(PID.TID 0000.0001) %MON thSI_SnwH_max_N              =   0.0000000000000E+00
(PID.TID 0000.0001) %MON thSI_Tsrf_ave_G              =  -7.7522787850824E+00
(PID.TID 0000.0001) %MON thSI_Tsrf_ave_S              =   0.0000000000000E+00
(PID.TID 0000.0001) %MON thSI_Tsrf_ave_N              =  -7.7522787850824E+00
(PID.TID 0000.0001) %MON thSI_Tsrf_min_S              =   0.0000000000000E+00
(PID.TID 0000.0001) %MON thSI_Tsrf_min_N              =  -8.4971105450514E+00
(PID.TID 0000.0001) %MON thSI_Tsrf_max_S              =   0.0000000000000E+00
(PID.TID 0000.0001) %MON thSI_Tsrf_max_N              =  -3.6645769253287E+00
(PID.TID 0000.0001) %MON thSI_Tic1_ave_G              =  -5.8762496127487E+00
(PID.TID 0000.0001) %MON thSI_Tic1_ave_S              =   0.0000000000000E+00
(PID.TID 0000.0001) %MON thSI_Tic1_ave_N              =  -5.8762496127487E+00
(PID.TID 0000.0001) %MON thSI_Tic1_min_S              =   0.0000000000000E+00
(PID.TID 0000.0001) %MON thSI_Tic1_min_N              =  -6.0405512102809E+00
(PID.TID 0000.0001) %MON thSI_Tic1_max_S              =   0.0000000000000E+00
(PID.TID 0000.0001) %MON thSI_Tic1_max_N              =  -3.1684397051020E+00
(PID.TID 0000.0001) %MON thSI_Tic2_ave_G              =  -2.8508397191846E+00
(PID.TID 0000.0001) %MON thSI_Tic2_ave_S              =   0.0000000000000E+00
(PID.TID 0000.0001) %MON thSI_Tic2_ave_N              =  -2.8508397191846E+00
(PID.TID 0000.0001) %MON thSI_Tic2_min_S              =   0.0000000000000E+00
(PID.TID 0000.0001) %MON thSI_Tic2_min_N              =  -2.9603556084153E+00
(PID.TID 0000.0001) %MON thSI_Tic2_max_S              =   0.0000000000000E+00
(PID.TID 0000.0001) %MON thSI_Tic2_max_N              =  -2.1770909708878E+00
(PID.TID 0000.0001) %MON thSI_TotEnerg_G              =  -7.4098697203717E+18
(PID.TID 0000.0001) // =======================================================
(PID.TID 0000.0001) // End MONITOR Therm.SeaIce statistics
(PID.TID 0000.0001) // =======================================================
 cg2d: Sum(rhs),rhsMax =   1.16415321826935E-09  2.67619655359734E+04
(PID.TID 0000.0001)      cg2d_init_res =   1.21712184648614E+04
(PID.TID 0000.0001)      cg2d_iters(min,last) =      -1      16
(PID.TID 0000.0001)      cg2d_last_res =   7.89907425532376E-11
(PID.TID 0000.0001) // =======================================================
(PID.TID 0000.0001) // Begin MONITOR dynamic field statistics
(PID.TID 0000.0001) // =======================================================
(PID.TID 0000.0001) %MON time_tsnumber                =                    20
(PID.TID 0000.0001) %MON time_secondsf                =   9.0000000000000E+03
(PID.TID 0000.0001) %MON dynstat_eta_max              =   4.6387377920590E+03
(PID.TID 0000.0001) %MON dynstat_eta_min              =  -1.0188096894176E+03
(PID.TID 0000.0001) %MON dynstat_eta_mean             =  -1.9278909337219E-14
(PID.TID 0000.0001) %MON dynstat_eta_sd               =   5.6051736156432E+02
(PID.TID 0000.0001) %MON dynstat_eta_del2             =   4.4783627620855E+00
(PID.TID 0000.0001) %MON dynstat_uvel_max             =   5.9662501649149E+00
(PID.TID 0000.0001) %MON dynstat_uvel_min             =  -6.3765358834863E+00
(PID.TID 0000.0001) %MON dynstat_uvel_mean            =  -6.1112277369527E-03
(PID.TID 0000.0001) %MON dynstat_uvel_sd              =   8.2287571419936E-01
(PID.TID 0000.0001) %MON dynstat_uvel_del2            =   1.0855170582332E-03
(PID.TID 0000.0001) %MON dynstat_vvel_max             =   4.4188826878501E+00
(PID.TID 0000.0001) %MON dynstat_vvel_min             =  -5.6198127042127E+00
(PID.TID 0000.0001) %MON dynstat_vvel_mean            =   2.7794984121720E-02
(PID.TID 0000.0001) %MON dynstat_vvel_sd              =   8.0224306698721E-01
(PID.TID 0000.0001) %MON dynstat_vvel_del2            =   1.0296868431734E-03
(PID.TID 0000.0001) %MON dynstat_wvel_max             =   2.5898607381398E-01
(PID.TID 0000.0001) %MON dynstat_wvel_min             =  -9.9595501917606E-02
(PID.TID 0000.0001) %MON dynstat_wvel_mean            =  -2.4509170801379E-05
(PID.TID 0000.0001) %MON dynstat_wvel_sd              =   9.0948980674494E-03
(PID.TID 0000.0001) %MON dynstat_wvel_del2            =   1.0051475044550E-04
(PID.TID 0000.0001) %MON dynstat_theta_max            =   4.3830698578592E+02
(PID.TID 0000.0001) %MON dynstat_theta_min            =   2.8478121643255E+02
(PID.TID 0000.0001) %MON dynstat_theta_mean           =   3.3169509715613E+02
(PID.TID 0000.0001) %MON dynstat_theta_sd             =   4.7443068740973E+01
(PID.TID 0000.0001) %MON dynstat_theta_del2           =   1.5411094780680E-03
(PID.TID 0000.0001) %MON dynstat_salt_max             =   4.1909353753042E+00
(PID.TID 0000.0001) %MON dynstat_salt_min             =  -3.1218087061187E-03
(PID.TID 0000.0001) %MON dynstat_salt_mean            =   7.3432262399788E-02
(PID.TID 0000.0001) %MON dynstat_salt_sd              =   2.9675800072845E-01
(PID.TID 0000.0001) %MON dynstat_salt_del2            =   9.5875254137301E-04
(PID.TID 0000.0001) %MON advcfl_uvel_max              =   9.0948469337228E-03
(PID.TID 0000.0001) %MON advcfl_vvel_max              =   8.0028324153637E-03
(PID.TID 0000.0001) %MON advcfl_wvel_max              =   4.2379539351378E-03
(PID.TID 0000.0001) %MON advcfl_W_hf_max              =   7.8503781122230E-03
(PID.TID 0000.0001) %MON am_eta_mean                  =  -8.1136133486111E+09
(PID.TID 0000.0001) %MON am_uZo_mean                  =   8.0599297837697E+09
(PID.TID 0000.0001) %MON am_tot_mean                  =  -5.3683564841442E+07
(PID.TID 0000.0001) %MON pe_b_mean                    =  -1.1543309539686E+00
(PID.TID 0000.0001) %MON ke_max                       =   2.0944253775094E+01
(PID.TID 0000.0001) %MON ke_mean                      =   6.5685311928453E-01
(PID.TID 0000.0001) %MON ke_vol                       =   4.9523908919847E+19
(PID.TID 0000.0001) %MON vort_r_min                   =  -2.1883982995084E-05
(PID.TID 0000.0001) %MON vort_r_max                   =   7.1348730357246E-06
(PID.TID 0000.0001) %MON vort_a_mean                  =   6.7242814765301E-08
(PID.TID 0000.0001) %MON vort_a_sd                    =   8.3978363498889E-05
(PID.TID 0000.0001) %MON vort_p_mean                  =   6.8939463232963E-08
(PID.TID 0000.0001) %MON vort_p_sd                    =   9.1888369945994E-05
(PID.TID 0000.0001) %MON surfExpan_theta_mean         =  -1.0991788105014E-03
(PID.TID 0000.0001) %MON surfExpan_salt_mean          =  -5.3445116568317E-04
(PID.TID 0000.0001) %MON surfExpan_Heat_mean          =  -2.8684005181348E-01
(PID.TID 0000.0001) %MON En_Budget_T2PE_mean          =   2.1962480027497E-01
(PID.TID 0000.0001) // =======================================================
(PID.TID 0000.0001) // End MONITOR dynamic field statistics
(PID.TID 0000.0001) // =======================================================
(PID.TID 0000.0001) // =======================================================
(PID.TID 0000.0001) // Begin MONITOR Land statistics
(PID.TID 0000.0001) // =======================================================
(PID.TID 0000.0001) %MON land_time_sec                =   9.0000000000000E+03
(PID.TID 0000.0001) %MON land_SnwH_ave_G              =   1.5322846617022E-01
(PID.TID 0000.0001) %MON land_SnwH_ave_S              =   5.5904553414881E-01
(PID.TID 0000.0001) %MON land_SnwH_ave_T              =   0.0000000000000E+00
(PID.TID 0000.0001) %MON land_SnwH_ave_N              =   1.2390534533671E-01
(PID.TID 0000.0001) %MON land_SnwH_max_S              =   9.9998921376725E-01
(PID.TID 0000.0001) %MON land_SnwH_max_T              =   0.0000000000000E+00
(PID.TID 0000.0001) %MON land_SnwH_max_N              =   9.9999865735383E-01
(PID.TID 0000.0001) %MON land_Tsrf_ave_G              =  -8.1599694501011E+00
(PID.TID 0000.0001) %MON land_Tsrf_ave_S              =  -7.3087998830570E+00
(PID.TID 0000.0001) %MON land_Tsrf_ave_T              =   1.0817409304153E+01
(PID.TID 0000.0001) %MON land_Tsrf_ave_N              =  -2.1108619088323E+01
(PID.TID 0000.0001) %MON land_Tsrf_min_S              =  -3.3756806196031E+01
(PID.TID 0000.0001) %MON land_Tsrf_min_T              =  -4.2062342318112E+00
(PID.TID 0000.0001) %MON land_Tsrf_min_N              =  -5.2039350452438E+01
(PID.TID 0000.0001) %MON land_Tsrf_max_S              =   2.0996389860771E+01
(PID.TID 0000.0001) %MON land_Tsrf_max_T              =   2.1562660966220E+01
(PID.TID 0000.0001) %MON land_Tsrf_max_N              =   9.1897319657101E+00
(PID.TID 0000.0001) %MON land_Tgr1_ave_G              =  -6.9013815923146E+00
(PID.TID 0000.0001) %MON land_Tgr1_ave_S              =  -6.9922572128603E+00
(PID.TID 0000.0001) %MON land_Tgr1_ave_T              =   1.0817409304153E+01
(PID.TID 0000.0001) %MON land_Tgr1_ave_N              =  -1.8703989554660E+01
(PID.TID 0000.0001) %MON land_Tgr1_min_S              =  -3.9218745000801E+01
(PID.TID 0000.0001) %MON land_Tgr1_min_T              =  -4.2062342318112E+00
(PID.TID 0000.0001) %MON land_Tgr1_min_N              =  -5.4757190493424E+01
(PID.TID 0000.0001) %MON land_Tgr1_max_S              =   2.0996389860771E+01
(PID.TID 0000.0001) %MON land_Tgr1_max_T              =   2.1562660966220E+01
(PID.TID 0000.0001) %MON land_Tgr1_max_N              =   9.1897319657101E+00
(PID.TID 0000.0001) %MON land_Tgr2_ave_G              =   4.2046043126462E+00
(PID.TID 0000.0001) %MON land_Tgr2_ave_S              =  -1.8727624215302E+01
(PID.TID 0000.0001) %MON land_Tgr2_ave_T              =   2.2010361237960E+01
(PID.TID 0000.0001) %MON land_Tgr2_ave_N              =  -2.4648129753035E-01
(PID.TID 0000.0001) %MON land_Tgr2_min_S              =  -6.4753645306757E+01
(PID.TID 0000.0001) %MON land_Tgr2_min_T              =  -9.7041223311235E+00
(PID.TID 0000.0001) %MON land_Tgr2_min_N              =  -4.0198400135213E+01
(PID.TID 0000.0001) %MON land_Tgr2_max_S              =   2.3360325305367E+01
(PID.TID 0000.0001) %MON land_Tgr2_max_T              =   3.1353900289336E+01
(PID.TID 0000.0001) %MON land_Tgr2_max_N              =   2.9824225191058E+01
(PID.TID 0000.0001) %MON land_TotEnerg_G              =  -6.3432002330167E+21
(PID.TID 0000.0001) %MON land_TotEnerg_S              =  -5.0017424604278E+21
(PID.TID 0000.0001) %MON land_TotEnerg_T              =   7.2823253604062E+21
(PID.TID 0000.0001) %MON land_TotEnerg_N              =  -8.6237831329951E+21
(PID.TID 0000.0001) %MON land_grdW_ave_G              =   4.8679880633386E-01
(PID.TID 0000.0001) %MON land_grdW_ave_S              =   3.0856450566699E-01
(PID.TID 0000.0001) %MON land_grdW_ave_T              =   5.6428231793815E-01
(PID.TID 0000.0001) %MON land_grdW_ave_N              =   4.9287571717324E-01
(PID.TID 0000.0001) %MON land_grdW_min_S              =   2.7076098147242E-02
(PID.TID 0000.0001) %MON land_grdW_min_T              =   0.0000000000000E+00
(PID.TID 0000.0001) %MON land_grdW_min_N              =   0.0000000000000E+00
(PID.TID 0000.0001) // =======================================================
(PID.TID 0000.0001) // End MONITOR Land statistics
(PID.TID 0000.0001) // =======================================================
(PID.TID 0000.0001) // =======================================================
(PID.TID 0000.0001) // Begin MONITOR Therm.SeaIce statistics
(PID.TID 0000.0001) // =======================================================
(PID.TID 0000.0001) %MON thSI_time_sec                =   9.0000000000000E+03
(PID.TID 0000.0001) %MON thSI_Ice_Area_G              =   2.0460986099205E+11
(PID.TID 0000.0001) %MON thSI_Ice_Area_S              =   0.0000000000000E+00
(PID.TID 0000.0001) %MON thSI_Ice_Area_N              =   2.0460986099205E+11
(PID.TID 0000.0001) %MON thSI_IceH_ave_G              =   1.1903353746189E-01
(PID.TID 0000.0001) %MON thSI_IceH_ave_S              =   0.0000000000000E+00
(PID.TID 0000.0001) %MON thSI_IceH_ave_N              =   1.1903353746189E-01
(PID.TID 0000.0001) %MON thSI_IceH_max_S              =   0.0000000000000E+00
(PID.TID 0000.0001) %MON thSI_IceH_max_N              =   1.4489401724384E-01
(PID.TID 0000.0001) %MON thSI_SnwH_ave_G              =   0.0000000000000E+00
(PID.TID 0000.0001) %MON thSI_SnwH_ave_S              =   0.0000000000000E+00
(PID.TID 0000.0001) %MON thSI_SnwH_ave_N              =   0.0000000000000E+00
(PID.TID 0000.0001) %MON thSI_SnwH_max_S              =   0.0000000000000E+00
(PID.TID 0000.0001) %MON thSI_SnwH_max_N              =   0.0000000000000E+00
(PID.TID 0000.0001) %MON thSI_Tsrf_ave_G              =  -7.8236490636324E+00
(PID.TID 0000.0001) %MON thSI_Tsrf_ave_S              =   0.0000000000000E+00
(PID.TID 0000.0001) %MON thSI_Tsrf_ave_N              =  -7.8236490636324E+00
(PID.TID 0000.0001) %MON thSI_Tsrf_min_S              =   0.0000000000000E+00
(PID.TID 0000.0001) %MON thSI_Tsrf_min_N              =  -8.6106257470785E+00
(PID.TID 0000.0001) %MON thSI_Tsrf_max_S              =   0.0000000000000E+00
(PID.TID 0000.0001) %MON thSI_Tsrf_max_N              =  -3.6963371927677E+00
(PID.TID 0000.0001) %MON thSI_Tic1_ave_G              =  -6.0003786356429E+00
(PID.TID 0000.0001) %MON thSI_Tic1_ave_S              =   0.0000000000000E+00
(PID.TID 0000.0001) %MON thSI_Tic1_ave_N              =  -6.0003786356429E+00
(PID.TID 0000.0001) %MON thSI_Tic1_min_S              =   0.0000000000000E+00
(PID.TID 0000.0001) %MON thSI_Tic1_min_N              =  -6.1674939305002E+00
(PID.TID 0000.0001) %MON thSI_Tic1_max_S              =   0.0000000000000E+00
(PID.TID 0000.0001) %MON thSI_Tic1_max_N              =  -3.1920570115315E+00
(PID.TID 0000.0001) %MON thSI_Tic2_ave_G              =  -2.9068930406457E+00
(PID.TID 0000.0001) %MON thSI_Tic2_ave_S              =   0.0000000000000E+00
(PID.TID 0000.0001) %MON thSI_Tic2_ave_N              =  -2.9068930406457E+00
(PID.TID 0000.0001) %MON thSI_Tic2_min_S              =   0.0000000000000E+00
(PID.TID 0000.0001) %MON thSI_Tic2_min_N              =  -3.0157640222605E+00
(PID.TID 0000.0001) %MON thSI_Tic2_max_S              =   0.0000000000000E+00
(PID.TID 0000.0001) %MON thSI_Tic2_max_N              =  -2.1848543332759E+00
(PID.TID 0000.0001) %MON thSI_TotEnerg_G              =  -7.4943842652591E+18
(PID.TID 0000.0001) // =======================================================
(PID.TID 0000.0001) // End MONITOR Therm.SeaIce statistics
(PID.TID 0000.0001) // =======================================================
 cg2d: Sum(rhs),rhsMax =   5.23868948221207E-10  2.64509416761797E+04
(PID.TID 0000.0001)      cg2d_init_res =   1.20596423907597E+04
(PID.TID 0000.0001)      cg2d_iters(min,last) =      -1      16
(PID.TID 0000.0001)      cg2d_last_res =   7.45577951268114E-11
(PID.TID 0000.0001) // =======================================================
(PID.TID 0000.0001) // Begin MONITOR dynamic field statistics
(PID.TID 0000.0001) // =======================================================
(PID.TID 0000.0001) %MON time_tsnumber                =                    21
(PID.TID 0000.0001) %MON time_secondsf                =   9.4500000000000E+03
(PID.TID 0000.0001) %MON dynstat_eta_max              =   4.5411181567850E+03
(PID.TID 0000.0001) %MON dynstat_eta_min              =  -9.7615706357519E+02
(PID.TID 0000.0001) %MON dynstat_eta_mean             =   4.4180833897793E-14
(PID.TID 0000.0001) %MON dynstat_eta_sd               =   5.5639420176673E+02
(PID.TID 0000.0001) %MON dynstat_eta_del2             =   4.4649478000085E+00
(PID.TID 0000.0001) %MON dynstat_uvel_max             =   5.9469552218425E+00
(PID.TID 0000.0001) %MON dynstat_uvel_min             =  -6.2755237276484E+00
(PID.TID 0000.0001) %MON dynstat_uvel_mean            =  -4.0645409854893E-03
(PID.TID 0000.0001) %MON dynstat_uvel_sd              =   8.2872354269226E-01
(PID.TID 0000.0001) %MON dynstat_uvel_del2            =   1.1085580402471E-03
(PID.TID 0000.0001) %MON dynstat_vvel_max             =   4.5859446848295E+00
(PID.TID 0000.0001) %MON dynstat_vvel_min             =  -5.6571543598165E+00
(PID.TID 0000.0001) %MON dynstat_vvel_mean            =   2.8285881007630E-02
(PID.TID 0000.0001) %MON dynstat_vvel_sd              =   8.0227446725084E-01
(PID.TID 0000.0001) %MON dynstat_vvel_del2            =   1.0510517512691E-03
(PID.TID 0000.0001) %MON dynstat_wvel_max             =   2.8182333706334E-01
(PID.TID 0000.0001) %MON dynstat_wvel_min             =  -1.1346647765737E-01
(PID.TID 0000.0001) %MON dynstat_wvel_mean            =   1.1214572151493E-04
(PID.TID 0000.0001) %MON dynstat_wvel_sd              =   9.5281481086429E-03
(PID.TID 0000.0001) %MON dynstat_wvel_del2            =   1.0515358416268E-04
(PID.TID 0000.0001) %MON dynstat_theta_max            =   4.3830277784487E+02
(PID.TID 0000.0001) %MON dynstat_theta_min            =   2.8455488162370E+02
(PID.TID 0000.0001) %MON dynstat_theta_mean           =   3.3169323328319E+02
(PID.TID 0000.0001) %MON dynstat_theta_sd             =   4.7445059079074E+01
(PID.TID 0000.0001) %MON dynstat_theta_del2           =   1.6029846474573E-03
(PID.TID 0000.0001) %MON dynstat_salt_max             =   4.2633493029557E+00
(PID.TID 0000.0001) %MON dynstat_salt_min             =  -4.7322106970328E-03
(PID.TID 0000.0001) %MON dynstat_salt_mean            =   7.6865118157683E-02
(PID.TID 0000.0001) %MON dynstat_salt_sd              =   3.0928739255319E-01
(PID.TID 0000.0001) %MON dynstat_salt_del2            =   9.8603481133503E-04
(PID.TID 0000.0001) %MON advcfl_uvel_max              =   8.9507733940175E-03
(PID.TID 0000.0001) %MON advcfl_vvel_max              =   8.0560083889484E-03
(PID.TID 0000.0001) %MON advcfl_wvel_max              =   4.6116546064911E-03
(PID.TID 0000.0001) %MON advcfl_W_hf_max              =   8.2091167648072E-03
(PID.TID 0000.0001) %MON am_eta_mean                  =  -8.7861350723638E+09
(PID.TID 0000.0001) %MON am_uZo_mean                  =   8.7244621461914E+09
(PID.TID 0000.0001) %MON am_tot_mean                  =  -6.1672926172400E+07
(PID.TID 0000.0001) %MON pe_b_mean                    =  -1.1678405867679E+00
(PID.TID 0000.0001) %MON ke_max                       =   1.9578176497192E+01
(PID.TID 0000.0001) %MON ke_mean                      =   6.6168018821852E-01
(PID.TID 0000.0001) %MON ke_vol                       =   4.9523908919847E+19
(PID.TID 0000.0001) %MON vort_r_min                   =  -2.0906372670942E-05
(PID.TID 0000.0001) %MON vort_r_max                   =   7.2955928925453E-06
(PID.TID 0000.0001) %MON vort_a_mean                  =   6.7242814765383E-08
(PID.TID 0000.0001) %MON vort_a_sd                    =   8.3981064490796E-05
(PID.TID 0000.0001) %MON vort_p_mean                  =   6.8939464090374E-08
(PID.TID 0000.0001) %MON vort_p_sd                    =   9.1875435629993E-05
(PID.TID 0000.0001) %MON surfExpan_theta_mean         =  -1.4336287702063E-02
(PID.TID 0000.0001) %MON surfExpan_salt_mean          =  -6.0905358086009E-04
(PID.TID 0000.0001) %MON surfExpan_Heat_mean          =   8.2445679655347E-01
(PID.TID 0000.0001) %MON En_Budget_T2PE_mean          =  -1.8662357287999E+00
(PID.TID 0000.0001) // =======================================================
(PID.TID 0000.0001) // End MONITOR dynamic field statistics
(PID.TID 0000.0001) // =======================================================
(PID.TID 0000.0001) // =======================================================
(PID.TID 0000.0001) // Begin MONITOR Land statistics
(PID.TID 0000.0001) // =======================================================
(PID.TID 0000.0001) %MON land_time_sec                =   9.4500000000000E+03
(PID.TID 0000.0001) %MON land_SnwH_ave_G              =   1.5322750233692E-01
(PID.TID 0000.0001) %MON land_SnwH_ave_S              =   5.5904466419929E-01
(PID.TID 0000.0001) %MON land_SnwH_ave_T              =   0.0000000000000E+00
(PID.TID 0000.0001) %MON land_SnwH_ave_N              =   1.2390370742856E-01
(PID.TID 0000.0001) %MON land_SnwH_max_S              =   9.9998865172383E-01
(PID.TID 0000.0001) %MON land_SnwH_max_T              =   0.0000000000000E+00
(PID.TID 0000.0001) %MON land_SnwH_max_N              =   9.9999859387550E-01
(PID.TID 0000.0001) %MON land_Tsrf_ave_G              =  -8.2168740608338E+00
(PID.TID 0000.0001) %MON land_Tsrf_ave_S              =  -7.3218977273817E+00
(PID.TID 0000.0001) %MON land_Tsrf_ave_T              =   1.0690676034247E+01
(PID.TID 0000.0001) %MON land_Tsrf_ave_N              =  -2.1133104822189E+01
(PID.TID 0000.0001) %MON land_Tsrf_min_S              =  -3.3756347765698E+01
(PID.TID 0000.0001) %MON land_Tsrf_min_T              =  -4.0732231862524E+00
(PID.TID 0000.0001) %MON land_Tsrf_min_N              =  -5.2044064438330E+01
(PID.TID 0000.0001) %MON land_Tsrf_max_S              =   2.0845691047700E+01
(PID.TID 0000.0001) %MON land_Tsrf_max_T              =   2.1329701745125E+01
(PID.TID 0000.0001) %MON land_Tsrf_max_N              =   9.0311767864743E+00
(PID.TID 0000.0001) %MON land_Tgr1_ave_G              =  -6.9664273313426E+00
(PID.TID 0000.0001) %MON land_Tgr1_ave_S              =  -7.0357534006311E+00
(PID.TID 0000.0001) %MON land_Tgr1_ave_T              =   1.0690676034247E+01
(PID.TID 0000.0001) %MON land_Tgr1_ave_N              =  -1.8734832717891E+01
(PID.TID 0000.0001) %MON land_Tgr1_min_S              =  -3.9229900768033E+01
(PID.TID 0000.0001) %MON land_Tgr1_min_T              =  -4.0732231862524E+00
(PID.TID 0000.0001) %MON land_Tgr1_min_N              =  -5.4744619330307E+01
(PID.TID 0000.0001) %MON land_Tgr1_max_S              =   2.0845691047700E+01
(PID.TID 0000.0001) %MON land_Tgr1_max_T              =   2.1329701745125E+01
(PID.TID 0000.0001) %MON land_Tgr1_max_N              =   9.0311767864743E+00
(PID.TID 0000.0001) %MON land_Tgr2_ave_G              =   4.2044329867360E+00
(PID.TID 0000.0001) %MON land_Tgr2_ave_S              =  -1.8727428366439E+01
(PID.TID 0000.0001) %MON land_Tgr2_ave_T              =   2.2010177602412E+01
(PID.TID 0000.0001) %MON land_Tgr2_ave_N              =  -2.4676351268526E-01
(PID.TID 0000.0001) %MON land_Tgr2_min_S              =  -6.4753215006959E+01
(PID.TID 0000.0001) %MON land_Tgr2_min_T              =  -9.7040511837356E+00
(PID.TID 0000.0001) %MON land_Tgr2_min_N              =  -4.0198636599137E+01
(PID.TID 0000.0001) %MON land_Tgr2_max_S              =   2.3360270650956E+01
(PID.TID 0000.0001) %MON land_Tgr2_max_T              =   3.1353482373969E+01
(PID.TID 0000.0001) %MON land_Tgr2_max_N              =   2.9823719900252E+01
(PID.TID 0000.0001) %MON land_TotEnerg_G              =  -6.3450958400403E+21
(PID.TID 0000.0001) %MON land_TotEnerg_S              =  -5.0018706914155E+21
(PID.TID 0000.0001) %MON land_TotEnerg_T              =   7.2812127333310E+21
(PID.TID 0000.0001) %MON land_TotEnerg_N              =  -8.6244378819558E+21
(PID.TID 0000.0001) %MON land_grdW_ave_G              =   4.8679043073289E-01
(PID.TID 0000.0001) %MON land_grdW_ave_S              =   3.0855639263400E-01
(PID.TID 0000.0001) %MON land_grdW_ave_T              =   5.6426172400692E-01
(PID.TID 0000.0001) %MON land_grdW_ave_N              =   4.9287541543842E-01
(PID.TID 0000.0001) %MON land_grdW_min_S              =   2.7161989411377E-02
(PID.TID 0000.0001) %MON land_grdW_min_T              =   0.0000000000000E+00
(PID.TID 0000.0001) %MON land_grdW_min_N              =   0.0000000000000E+00
(PID.TID 0000.0001) // =======================================================
(PID.TID 0000.0001) // End MONITOR Land statistics
(PID.TID 0000.0001) // =======================================================
(PID.TID 0000.0001) // =======================================================
(PID.TID 0000.0001) // Begin MONITOR Therm.SeaIce statistics
(PID.TID 0000.0001) // =======================================================
(PID.TID 0000.0001) %MON thSI_time_sec                =   9.4500000000000E+03
(PID.TID 0000.0001) %MON thSI_Ice_Area_G              =   2.0720553398690E+11
(PID.TID 0000.0001) %MON thSI_Ice_Area_S              =   0.0000000000000E+00
(PID.TID 0000.0001) %MON thSI_Ice_Area_N              =   2.0720553398690E+11
(PID.TID 0000.0001) %MON thSI_IceH_ave_G              =   1.1879901106260E-01
(PID.TID 0000.0001) %MON thSI_IceH_ave_S              =   0.0000000000000E+00
(PID.TID 0000.0001) %MON thSI_IceH_ave_N              =   1.1879901106260E-01
(PID.TID 0000.0001) %MON thSI_IceH_max_S              =   0.0000000000000E+00
(PID.TID 0000.0001) %MON thSI_IceH_max_N              =   1.4523684584098E-01
(PID.TID 0000.0001) %MON thSI_SnwH_ave_G              =   0.0000000000000E+00
(PID.TID 0000.0001) %MON thSI_SnwH_ave_S              =   0.0000000000000E+00
(PID.TID 0000.0001) %MON thSI_SnwH_ave_N              =   0.0000000000000E+00
(PID.TID 0000.0001) %MON thSI_SnwH_max_S              =   0.0000000000000E+00
(PID.TID 0000.0001) %MON thSI_SnwH_max_N              =   0.0000000000000E+00
(PID.TID 0000.0001) %MON thSI_Tsrf_ave_G              =  -7.8886494402861E+00
(PID.TID 0000.0001) %MON thSI_Tsrf_ave_S              =   0.0000000000000E+00
(PID.TID 0000.0001) %MON thSI_Tsrf_ave_N              =  -7.8886494402861E+00
(PID.TID 0000.0001) %MON thSI_Tsrf_min_S              =   0.0000000000000E+00
(PID.TID 0000.0001) %MON thSI_Tsrf_min_N              =  -8.7165127684218E+00
(PID.TID 0000.0001) %MON thSI_Tsrf_max_S              =   0.0000000000000E+00
(PID.TID 0000.0001) %MON thSI_Tsrf_max_N              =  -3.7276550643804E+00
(PID.TID 0000.0001) %MON thSI_Tic1_ave_G              =  -6.1150179437628E+00
(PID.TID 0000.0001) %MON thSI_Tic1_ave_S              =   0.0000000000000E+00
(PID.TID 0000.0001) %MON thSI_Tic1_ave_N              =  -6.1150179437628E+00
(PID.TID 0000.0001) %MON thSI_Tic1_min_S              =   0.0000000000000E+00
(PID.TID 0000.0001) %MON thSI_Tic1_min_N              =  -6.2842741348301E+00
(PID.TID 0000.0001) %MON thSI_Tic1_max_S              =   0.0000000000000E+00
(PID.TID 0000.0001) %MON thSI_Tic1_max_N              =  -3.2153730028670E+00
(PID.TID 0000.0001) %MON thSI_Tic2_ave_G              =  -2.9581337053220E+00
(PID.TID 0000.0001) %MON thSI_Tic2_ave_S              =   0.0000000000000E+00
(PID.TID 0000.0001) %MON thSI_Tic2_ave_N              =  -2.9581337053220E+00
(PID.TID 0000.0001) %MON thSI_Tic2_min_S              =   0.0000000000000E+00
(PID.TID 0000.0001) %MON thSI_Tic2_min_N              =  -3.0662233267267E+00
(PID.TID 0000.0001) %MON thSI_Tic2_max_S              =   0.0000000000000E+00
(PID.TID 0000.0001) %MON thSI_Tic2_max_N              =  -2.1925241694781E+00
(PID.TID 0000.0001) %MON thSI_TotEnerg_G              =  -7.5789472205953E+18
(PID.TID 0000.0001) // =======================================================
(PID.TID 0000.0001) // End MONITOR Therm.SeaIce statistics
(PID.TID 0000.0001) // =======================================================
 cg2d: Sum(rhs),rhsMax =  -2.91038304567337E-10  2.58744712091568E+04
(PID.TID 0000.0001)      cg2d_init_res =   1.19437892643330E+04
(PID.TID 0000.0001)      cg2d_iters(min,last) =      -1      16
(PID.TID 0000.0001)      cg2d_last_res =   7.09095828016136E-11
(PID.TID 0000.0001) // =======================================================
(PID.TID 0000.0001) // Begin MONITOR dynamic field statistics
(PID.TID 0000.0001) // =======================================================
(PID.TID 0000.0001) %MON time_tsnumber                =                    22
(PID.TID 0000.0001) %MON time_secondsf                =   9.9000000000000E+03
(PID.TID 0000.0001) %MON dynstat_eta_max              =   4.3935746849670E+03
(PID.TID 0000.0001) %MON dynstat_eta_min              =  -9.3391073448510E+02
(PID.TID 0000.0001) %MON dynstat_eta_mean             =   5.9443303789758E-14
(PID.TID 0000.0001) %MON dynstat_eta_sd               =   5.5039140183727E+02
(PID.TID 0000.0001) %MON dynstat_eta_del2             =   4.4504593366802E+00
(PID.TID 0000.0001) %MON dynstat_uvel_max             =   5.9119273220274E+00
(PID.TID 0000.0001) %MON dynstat_uvel_min             =  -6.1094537567340E+00
(PID.TID 0000.0001) %MON dynstat_uvel_mean            =  -1.4522152050873E-03
(PID.TID 0000.0001) %MON dynstat_uvel_sd              =   8.3261142432010E-01
(PID.TID 0000.0001) %MON dynstat_uvel_del2            =   1.1314738838773E-03
(PID.TID 0000.0001) %MON dynstat_vvel_max             =   4.7487674607315E+00
(PID.TID 0000.0001) %MON dynstat_vvel_min             =  -5.8869879737737E+00
(PID.TID 0000.0001) %MON dynstat_vvel_mean            =   2.8506284129523E-02
(PID.TID 0000.0001) %MON dynstat_vvel_sd              =   8.0388577031435E-01
(PID.TID 0000.0001) %MON dynstat_vvel_del2            =   1.0769222403188E-03
(PID.TID 0000.0001) %MON dynstat_wvel_max             =   2.9258945001891E-01
(PID.TID 0000.0001) %MON dynstat_wvel_min             =  -1.2486013141629E-01
(PID.TID 0000.0001) %MON dynstat_wvel_mean            =   2.3444693174686E-04
(PID.TID 0000.0001) %MON dynstat_wvel_sd              =   9.9198542248811E-03
(PID.TID 0000.0001) %MON dynstat_wvel_del2            =   1.0939603576567E-04
(PID.TID 0000.0001) %MON dynstat_theta_max            =   4.3827142083268E+02
(PID.TID 0000.0001) %MON dynstat_theta_min            =   2.8432989435862E+02
(PID.TID 0000.0001) %MON dynstat_theta_mean           =   3.3169132805256E+02
(PID.TID 0000.0001) %MON dynstat_theta_sd             =   4.7447063095944E+01
(PID.TID 0000.0001) %MON dynstat_theta_del2           =   1.6649208859558E-03
(PID.TID 0000.0001) %MON dynstat_salt_max             =   4.3307615019467E+00
(PID.TID 0000.0001) %MON dynstat_salt_min             =  -6.4101071925767E-03
(PID.TID 0000.0001) %MON dynstat_salt_mean            =   8.0284225188229E-02
(PID.TID 0000.0001) %MON dynstat_salt_sd              =   3.2168843408125E-01
(PID.TID 0000.0001) %MON dynstat_salt_del2            =   1.0130789867930E-03
(PID.TID 0000.0001) %MON advcfl_uvel_max              =   8.7139079558938E-03
(PID.TID 0000.0001) %MON advcfl_vvel_max              =   8.3915929332037E-03
(PID.TID 0000.0001) %MON advcfl_wvel_max              =   4.7878273639458E-03
(PID.TID 0000.0001) %MON advcfl_W_hf_max              =   8.2936464563622E-03
(PID.TID 0000.0001) %MON am_eta_mean                  =  -9.4624163976553E+09
(PID.TID 0000.0001) %MON am_uZo_mean                  =   9.3925773356269E+09
(PID.TID 0000.0001) %MON am_tot_mean                  =  -6.9839062028408E+07
(PID.TID 0000.0001) %MON pe_b_mean                    =  -1.1807629587037E+00
(PID.TID 0000.0001) %MON ke_max                       =   1.8420951693677E+01
(PID.TID 0000.0001) %MON ke_mean                      =   6.6617425764822E-01
(PID.TID 0000.0001) %MON ke_vol                       =   4.9523908919847E+19
(PID.TID 0000.0001) %MON vort_r_min                   =  -2.1986877981125E-05
(PID.TID 0000.0001) %MON vort_r_max                   =   7.7746285983228E-06
(PID.TID 0000.0001) %MON vort_a_mean                  =   6.7242814765214E-08
(PID.TID 0000.0001) %MON vort_a_sd                    =   8.3983745489266E-05
(PID.TID 0000.0001) %MON vort_p_mean                  =   6.8939464881202E-08
(PID.TID 0000.0001) %MON vort_p_sd                    =   9.1860177273295E-05
(PID.TID 0000.0001) %MON surfExpan_theta_mean         =  -2.6114280953351E-02
(PID.TID 0000.0001) %MON surfExpan_salt_mean          =  -6.9025015493477E-04
(PID.TID 0000.0001) %MON surfExpan_Heat_mean          =   1.8164529422995E+00
(PID.TID 0000.0001) %MON En_Budget_T2PE_mean          =  -3.7264706921899E+00
(PID.TID 0000.0001) // =======================================================
(PID.TID 0000.0001) // End MONITOR dynamic field statistics
(PID.TID 0000.0001) // =======================================================
(PID.TID 0000.0001) // =======================================================
(PID.TID 0000.0001) // Begin MONITOR Land statistics
(PID.TID 0000.0001) // =======================================================
(PID.TID 0000.0001) %MON land_time_sec                =   9.9000000000000E+03
(PID.TID 0000.0001) %MON land_SnwH_ave_G              =   1.5322654036981E-01
(PID.TID 0000.0001) %MON land_SnwH_ave_S              =   5.5904379146324E-01
(PID.TID 0000.0001) %MON land_SnwH_ave_T              =   0.0000000000000E+00
(PID.TID 0000.0001) %MON land_SnwH_ave_N              =   1.2390207414207E-01
(PID.TID 0000.0001) %MON land_SnwH_max_S              =   9.9998809129523E-01
(PID.TID 0000.0001) %MON land_SnwH_max_T              =   0.0000000000000E+00
(PID.TID 0000.0001) %MON land_SnwH_max_N              =   9.9999853042099E-01
(PID.TID 0000.0001) %MON land_Tsrf_ave_G              =  -8.2681403424413E+00
(PID.TID 0000.0001) %MON land_Tsrf_ave_S              =  -7.3279550140091E+00
(PID.TID 0000.0001) %MON land_Tsrf_ave_T              =   1.0575273829772E+01
(PID.TID 0000.0001) %MON land_Tsrf_ave_N              =  -2.1156208543220E+01
(PID.TID 0000.0001) %MON land_Tsrf_min_S              =  -3.3755699179810E+01
(PID.TID 0000.0001) %MON land_Tsrf_min_T              =  -3.9441963306523E+00
(PID.TID 0000.0001) %MON land_Tsrf_min_N              =  -5.2046809620563E+01
(PID.TID 0000.0001) %MON land_Tsrf_max_S              =   2.0712321821617E+01
(PID.TID 0000.0001) %MON land_Tsrf_max_T              =   2.1119963718772E+01
(PID.TID 0000.0001) %MON land_Tsrf_max_N              =   8.8814814056270E+00
(PID.TID 0000.0001) %MON land_Tgr1_ave_G              =  -7.0260709657676E+00
(PID.TID 0000.0001) %MON land_Tgr1_ave_S              =  -7.0741926931741E+00
(PID.TID 0000.0001) %MON land_Tgr1_ave_T              =   1.0575273829772E+01
(PID.TID 0000.0001) %MON land_Tgr1_ave_N              =  -1.8764120978374E+01
(PID.TID 0000.0001) %MON land_Tgr1_min_S              =  -3.9241019136219E+01
(PID.TID 0000.0001) %MON land_Tgr1_min_T              =  -3.9441963306523E+00
(PID.TID 0000.0001) %MON land_Tgr1_min_N              =  -5.4732071604762E+01
(PID.TID 0000.0001) %MON land_Tgr1_max_S              =   2.0712321821617E+01
(PID.TID 0000.0001) %MON land_Tgr1_max_T              =   2.1119963718772E+01
(PID.TID 0000.0001) %MON land_Tgr1_max_N              =   8.8814814056270E+00
(PID.TID 0000.0001) %MON land_Tgr2_ave_G              =   4.2042607506586E+00
(PID.TID 0000.0001) %MON land_Tgr2_ave_S              =  -1.8727233129200E+01
(PID.TID 0000.0001) %MON land_Tgr2_ave_T              =   2.2009992259974E+01
(PID.TID 0000.0001) %MON land_Tgr2_ave_N              =  -2.4704620282560E-01
(PID.TID 0000.0001) %MON land_Tgr2_min_S              =  -6.4752784916802E+01
(PID.TID 0000.0001) %MON land_Tgr2_min_T              =  -9.7039784071959E+00
(PID.TID 0000.0001) %MON land_Tgr2_min_N              =  -4.0198872825586E+01
(PID.TID 0000.0001) %MON land_Tgr2_max_S              =   2.3360213375998E+01
(PID.TID 0000.0001) %MON land_Tgr2_max_T              =   3.1353061086777E+01
(PID.TID 0000.0001) %MON land_Tgr2_max_N              =   2.9823208979718E+01
(PID.TID 0000.0001) %MON land_TotEnerg_G              =  -6.3468638895422E+21
(PID.TID 0000.0001) %MON land_TotEnerg_S              =  -5.0019814248166E+21
(PID.TID 0000.0001) %MON land_TotEnerg_T              =   7.2801964959978E+21
(PID.TID 0000.0001) %MON land_TotEnerg_N              =  -8.6250789607234E+21
(PID.TID 0000.0001) %MON land_grdW_ave_G              =   4.8678222390612E-01
(PID.TID 0000.0001) %MON land_grdW_ave_S              =   3.0854838398551E-01
(PID.TID 0000.0001) %MON land_grdW_ave_T              =   5.6424157897053E-01
(PID.TID 0000.0001) %MON land_grdW_ave_N              =   4.9287511630912E-01
(PID.TID 0000.0001) %MON land_grdW_min_S              =   2.7248361481797E-02
(PID.TID 0000.0001) %MON land_grdW_min_T              =   0.0000000000000E+00
(PID.TID 0000.0001) %MON land_grdW_min_N              =   0.0000000000000E+00
(PID.TID 0000.0001) // =======================================================
(PID.TID 0000.0001) // End MONITOR Land statistics
(PID.TID 0000.0001) // =======================================================
(PID.TID 0000.0001) // =======================================================
(PID.TID 0000.0001) // Begin MONITOR Therm.SeaIce statistics
(PID.TID 0000.0001) // =======================================================
(PID.TID 0000.0001) %MON thSI_time_sec                =   9.9000000000000E+03
(PID.TID 0000.0001) %MON thSI_Ice_Area_G              =   2.0975011852809E+11
(PID.TID 0000.0001) %MON thSI_Ice_Area_S              =   0.0000000000000E+00
(PID.TID 0000.0001) %MON thSI_Ice_Area_N              =   2.0975011852809E+11
(PID.TID 0000.0001) %MON thSI_IceH_ave_G              =   1.1860435125001E-01
(PID.TID 0000.0001) %MON thSI_IceH_ave_S              =   0.0000000000000E+00
(PID.TID 0000.0001) %MON thSI_IceH_ave_N              =   1.1860435125001E-01
(PID.TID 0000.0001) %MON thSI_IceH_max_S              =   0.0000000000000E+00
(PID.TID 0000.0001) %MON thSI_IceH_max_N              =   1.4558375085490E-01
(PID.TID 0000.0001) %MON thSI_SnwH_ave_G              =   0.0000000000000E+00
(PID.TID 0000.0001) %MON thSI_SnwH_ave_S              =   0.0000000000000E+00
(PID.TID 0000.0001) %MON thSI_SnwH_ave_N              =   0.0000000000000E+00
(PID.TID 0000.0001) %MON thSI_SnwH_max_S              =   0.0000000000000E+00
(PID.TID 0000.0001) %MON thSI_SnwH_max_N              =   0.0000000000000E+00
(PID.TID 0000.0001) %MON thSI_Tsrf_ave_G              =  -7.9477477002178E+00
(PID.TID 0000.0001) %MON thSI_Tsrf_ave_S              =   0.0000000000000E+00
(PID.TID 0000.0001) %MON thSI_Tsrf_ave_N              =  -7.9477477002178E+00
(PID.TID 0000.0001) %MON thSI_Tsrf_min_S              =   0.0000000000000E+00
(PID.TID 0000.0001) %MON thSI_Tsrf_min_N              =  -8.8174777289238E+00
(PID.TID 0000.0001) %MON thSI_Tsrf_max_S              =   0.0000000000000E+00
(PID.TID 0000.0001) %MON thSI_Tsrf_max_N              =  -3.7585046138751E+00
(PID.TID 0000.0001) %MON thSI_Tic1_ave_G              =  -6.2206811866800E+00
(PID.TID 0000.0001) %MON thSI_Tic1_ave_S              =   0.0000000000000E+00
(PID.TID 0000.0001) %MON thSI_Tic1_ave_N              =  -6.2206811866800E+00
(PID.TID 0000.0001) %MON thSI_Tic1_min_S              =   0.0000000000000E+00
(PID.TID 0000.0001) %MON thSI_Tic1_min_N              =  -6.3915550996073E+00
(PID.TID 0000.0001) %MON thSI_Tic1_max_S              =   0.0000000000000E+00
(PID.TID 0000.0001) %MON thSI_Tic1_max_N              =  -3.2383472174345E+00
(PID.TID 0000.0001) %MON thSI_Tic2_ave_G              =  -3.0050554931183E+00
(PID.TID 0000.0001) %MON thSI_Tic2_ave_S              =   0.0000000000000E+00
(PID.TID 0000.0001) %MON thSI_Tic2_ave_N              =  -3.0050554931183E+00
(PID.TID 0000.0001) %MON thSI_Tic2_min_S              =   0.0000000000000E+00
(PID.TID 0000.0001) %MON thSI_Tic2_min_N              =  -3.1122674585647E+00
(PID.TID 0000.0001) %MON thSI_Tic2_max_S              =   0.0000000000000E+00
(PID.TID 0000.0001) %MON thSI_Tic2_max_N              =  -2.2000815837958E+00
(PID.TID 0000.0001) %MON thSI_TotEnerg_G              =  -7.6635576993637E+18
(PID.TID 0000.0001) // =======================================================
(PID.TID 0000.0001) // End MONITOR Therm.SeaIce statistics
(PID.TID 0000.0001) // =======================================================
 cg2d: Sum(rhs),rhsMax =   3.49245965480804E-10  2.51022413965551E+04
(PID.TID 0000.0001)      cg2d_init_res =   1.18241573901087E+04
(PID.TID 0000.0001)      cg2d_iters(min,last) =      -1      16
(PID.TID 0000.0001)      cg2d_last_res =   7.03377533405253E-11
(PID.TID 0000.0001) // =======================================================
(PID.TID 0000.0001) // Begin MONITOR dynamic field statistics
(PID.TID 0000.0001) // =======================================================
(PID.TID 0000.0001) %MON time_tsnumber                =                    23
(PID.TID 0000.0001) %MON time_secondsf                =   1.0350000000000E+04
(PID.TID 0000.0001) %MON dynstat_eta_max              =   4.2135008870595E+03
(PID.TID 0000.0001) %MON dynstat_eta_min              =  -8.9513308393501E+02
(PID.TID 0000.0001) %MON dynstat_eta_mean             =  -1.2852606224812E-14
(PID.TID 0000.0001) %MON dynstat_eta_sd               =   5.4279307263843E+02
(PID.TID 0000.0001) %MON dynstat_eta_del2             =   4.4355501661785E+00
(PID.TID 0000.0001) %MON dynstat_uvel_max             =   5.8594008682853E+00
(PID.TID 0000.0001) %MON dynstat_uvel_min             =  -6.1208447917094E+00
(PID.TID 0000.0001) %MON dynstat_uvel_mean            =   1.7502706462720E-03
(PID.TID 0000.0001) %MON dynstat_uvel_sd              =   8.3434362402403E-01
(PID.TID 0000.0001) %MON dynstat_uvel_del2            =   1.1549881151449E-03
(PID.TID 0000.0001) %MON dynstat_vvel_max             =   4.8715595307933E+00
(PID.TID 0000.0001) %MON dynstat_vvel_min             =  -6.0638395097582E+00
(PID.TID 0000.0001) %MON dynstat_vvel_mean            =   2.8459159751496E-02
(PID.TID 0000.0001) %MON dynstat_vvel_sd              =   8.0657533613682E-01
(PID.TID 0000.0001) %MON dynstat_vvel_del2            =   1.1056807305719E-03
(PID.TID 0000.0001) %MON dynstat_wvel_max             =   2.9145511272526E-01
(PID.TID 0000.0001) %MON dynstat_wvel_min             =  -1.3329184382608E-01
(PID.TID 0000.0001) %MON dynstat_wvel_mean            =   3.3991151770132E-04
(PID.TID 0000.0001) %MON dynstat_wvel_sd              =   1.0231294066699E-02
(PID.TID 0000.0001) %MON dynstat_wvel_del2            =   1.1298279224892E-04
(PID.TID 0000.0001) %MON dynstat_theta_max            =   4.3821442974283E+02
(PID.TID 0000.0001) %MON dynstat_theta_min            =   2.8410623536001E+02
(PID.TID 0000.0001) %MON dynstat_theta_mean           =   3.3168938143745E+02
(PID.TID 0000.0001) %MON dynstat_theta_sd             =   4.7449078883245E+01
(PID.TID 0000.0001) %MON dynstat_theta_del2           =   1.7270099801924E-03
(PID.TID 0000.0001) %MON dynstat_salt_max             =   4.3937201006146E+00
(PID.TID 0000.0001) %MON dynstat_salt_min             =  -8.1537693726148E-03
(PID.TID 0000.0001) %MON dynstat_salt_mean            =   8.3690163746573E-02
(PID.TID 0000.0001) %MON dynstat_salt_sd              =   3.3396517227158E-01
(PID.TID 0000.0001) %MON dynstat_salt_del2            =   1.0399131927845E-03
(PID.TID 0000.0001) %MON advcfl_uvel_max              =   8.5402157392647E-03
(PID.TID 0000.0001) %MON advcfl_vvel_max              =   8.6436855323742E-03
(PID.TID 0000.0001) %MON advcfl_wvel_max              =   4.7692654809589E-03
(PID.TID 0000.0001) %MON advcfl_W_hf_max              =   8.1145086364820E-03
(PID.TID 0000.0001) %MON am_eta_mean                  =  -1.0139260176162E+10
(PID.TID 0000.0001) %MON am_uZo_mean                  =   1.0061112784976E+10
(PID.TID 0000.0001) %MON am_tot_mean                  =  -7.8147391185911E+07
(PID.TID 0000.0001) %MON pe_b_mean                    =  -1.1925589185359E+00
(PID.TID 0000.0001) %MON ke_max                       =   1.8177855420759E+01
(PID.TID 0000.0001) %MON ke_mean                      =   6.6975971235317E-01
(PID.TID 0000.0001) %MON ke_vol                       =   4.9523908919847E+19
(PID.TID 0000.0001) %MON vort_r_min                   =  -2.2661738318395E-05
(PID.TID 0000.0001) %MON vort_r_max                   =   8.2532218155502E-06
(PID.TID 0000.0001) %MON vort_a_mean                  =   6.7242814765336E-08
(PID.TID 0000.0001) %MON vort_a_sd                    =   8.3986396481945E-05
(PID.TID 0000.0001) %MON vort_p_mean                  =   6.8939465674452E-08
(PID.TID 0000.0001) %MON vort_p_sd                    =   9.1843083965462E-05
(PID.TID 0000.0001) %MON surfExpan_theta_mean         =  -3.6198844947111E-02
(PID.TID 0000.0001) %MON surfExpan_salt_mean          =  -7.7744660345800E-04
(PID.TID 0000.0001) %MON surfExpan_Heat_mean          =   2.6689936770887E+00
(PID.TID 0000.0001) %MON En_Budget_T2PE_mean          =  -5.3235471387686E+00
(PID.TID 0000.0001) // =======================================================
(PID.TID 0000.0001) // End MONITOR dynamic field statistics
(PID.TID 0000.0001) // =======================================================
(PID.TID 0000.0001) // =======================================================
(PID.TID 0000.0001) // Begin MONITOR Land statistics
(PID.TID 0000.0001) // =======================================================
(PID.TID 0000.0001) %MON land_time_sec                =   1.0350000000000E+04
(PID.TID 0000.0001) %MON land_SnwH_ave_G              =   1.5322558015252E-01
(PID.TID 0000.0001) %MON land_SnwH_ave_S              =   5.5904291579540E-01
(PID.TID 0000.0001) %MON land_SnwH_ave_T              =   0.0000000000000E+00
(PID.TID 0000.0001) %MON land_SnwH_ave_N              =   1.2390044529260E-01
(PID.TID 0000.0001) %MON land_SnwH_max_S              =   9.9998753204721E-01
(PID.TID 0000.0001) %MON land_SnwH_max_T              =   0.0000000000000E+00
(PID.TID 0000.0001) %MON land_SnwH_max_N              =   9.9999846696440E-01
(PID.TID 0000.0001) %MON land_Tsrf_ave_G              =  -8.3145582449427E+00
(PID.TID 0000.0001) %MON land_Tsrf_ave_S              =  -7.3304218901761E+00
(PID.TID 0000.0001) %MON land_Tsrf_ave_T              =   1.0470080570609E+01
(PID.TID 0000.0001) %MON land_Tsrf_ave_N              =  -2.1177635436241E+01
(PID.TID 0000.0001) %MON land_Tsrf_min_S              =  -3.3752125255480E+01
(PID.TID 0000.0001) %MON land_Tsrf_min_T              =  -3.8190457122775E+00
(PID.TID 0000.0001) %MON land_Tsrf_min_N              =  -5.2047383465728E+01
(PID.TID 0000.0001) %MON land_Tsrf_max_S              =   2.0594574293980E+01
(PID.TID 0000.0001) %MON land_Tsrf_max_T              =   2.0931369828917E+01
(PID.TID 0000.0001) %MON land_Tsrf_max_N              =   8.7403415638739E+00
(PID.TID 0000.0001) %MON land_Tgr1_ave_G              =  -7.0806930842545E+00
(PID.TID 0000.0001) %MON land_Tgr1_ave_S              =  -7.1080995030826E+00
(PID.TID 0000.0001) %MON land_Tgr1_ave_T              =   1.0470080570609E+01
(PID.TID 0000.0001) %MON land_Tgr1_ave_N              =  -1.8791693096272E+01
(PID.TID 0000.0001) %MON land_Tgr1_min_S              =  -3.9252094216938E+01
(PID.TID 0000.0001) %MON land_Tgr1_min_T              =  -3.8190457122775E+00
(PID.TID 0000.0001) %MON land_Tgr1_min_N              =  -5.4719545164020E+01
(PID.TID 0000.0001) %MON land_Tgr1_max_S              =   2.0594574293980E+01
(PID.TID 0000.0001) %MON land_Tgr1_max_T              =   2.0931369828917E+01
(PID.TID 0000.0001) %MON land_Tgr1_max_N              =   8.7403415638739E+00
(PID.TID 0000.0001) %MON land_Tgr2_ave_G              =   4.2040876857812E+00
(PID.TID 0000.0001) %MON land_Tgr2_ave_S              =  -1.8727038431856E+01
(PID.TID 0000.0001) %MON land_Tgr2_ave_T              =   2.2009805358244E+01
(PID.TID 0000.0001) %MON land_Tgr2_ave_N              =  -2.4732932768348E-01
(PID.TID 0000.0001) %MON land_Tgr2_min_S              =  -6.4752355035888E+01
(PID.TID 0000.0001) %MON land_Tgr2_min_T              =  -9.7039040505152E+00
(PID.TID 0000.0001) %MON land_Tgr2_min_N              =  -4.0199108815033E+01
(PID.TID 0000.0001) %MON land_Tgr2_max_S              =   2.3360153744205E+01
(PID.TID 0000.0001) %MON land_Tgr2_max_T              =   3.1352636639207E+01
(PID.TID 0000.0001) %MON land_Tgr2_max_N              =   2.9822692639093E+01
(PID.TID 0000.0001) %MON land_TotEnerg_G              =  -6.3485166893666E+21
(PID.TID 0000.0001) %MON land_TotEnerg_S              =  -5.0020764971964E+21
(PID.TID 0000.0001) %MON land_TotEnerg_T              =   7.2792667391497E+21
(PID.TID 0000.0001) %MON land_TotEnerg_N              =  -8.6257069313199E+21
(PID.TID 0000.0001) %MON land_grdW_ave_G              =   4.8677416831065E-01
(PID.TID 0000.0001) %MON land_grdW_ave_S              =   3.0854046954252E-01
(PID.TID 0000.0001) %MON land_grdW_ave_T              =   5.6422183589903E-01
(PID.TID 0000.0001) %MON land_grdW_ave_N              =   4.9287481947742E-01
(PID.TID 0000.0001) %MON land_grdW_min_S              =   2.7335070750956E-02
(PID.TID 0000.0001) %MON land_grdW_min_T              =   0.0000000000000E+00
(PID.TID 0000.0001) %MON land_grdW_min_N              =   0.0000000000000E+00
(PID.TID 0000.0001) // =======================================================
(PID.TID 0000.0001) // End MONITOR Land statistics
(PID.TID 0000.0001) // =======================================================
(PID.TID 0000.0001) // =======================================================
(PID.TID 0000.0001) // Begin MONITOR Therm.SeaIce statistics
(PID.TID 0000.0001) // =======================================================
(PID.TID 0000.0001) %MON thSI_time_sec                =   1.0350000000000E+04
(PID.TID 0000.0001) %MON thSI_Ice_Area_G              =   2.1224599982309E+11
(PID.TID 0000.0001) %MON thSI_Ice_Area_S              =   0.0000000000000E+00
(PID.TID 0000.0001) %MON thSI_Ice_Area_N              =   2.1224599982309E+11
(PID.TID 0000.0001) %MON thSI_IceH_ave_G              =   1.1844633846430E-01
(PID.TID 0000.0001) %MON thSI_IceH_ave_S              =   0.0000000000000E+00
(PID.TID 0000.0001) %MON thSI_IceH_ave_N              =   1.1844633846430E-01
(PID.TID 0000.0001) %MON thSI_IceH_max_S              =   0.0000000000000E+00
(PID.TID 0000.0001) %MON thSI_IceH_max_N              =   1.4593439153373E-01
(PID.TID 0000.0001) %MON thSI_SnwH_ave_G              =   0.0000000000000E+00
(PID.TID 0000.0001) %MON thSI_SnwH_ave_S              =   0.0000000000000E+00
(PID.TID 0000.0001) %MON thSI_SnwH_ave_N              =   0.0000000000000E+00
(PID.TID 0000.0001) %MON thSI_SnwH_max_S              =   0.0000000000000E+00
(PID.TID 0000.0001) %MON thSI_SnwH_max_N              =   0.0000000000000E+00
(PID.TID 0000.0001) %MON thSI_Tsrf_ave_G              =  -8.0013861616273E+00
(PID.TID 0000.0001) %MON thSI_Tsrf_ave_S              =   0.0000000000000E+00
(PID.TID 0000.0001) %MON thSI_Tsrf_ave_N              =  -8.0013861616273E+00
(PID.TID 0000.0001) %MON thSI_Tsrf_min_S              =   0.0000000000000E+00
(PID.TID 0000.0001) %MON thSI_Tsrf_min_N              =  -8.9119584987856E+00
(PID.TID 0000.0001) %MON thSI_Tsrf_max_S              =   0.0000000000000E+00
(PID.TID 0000.0001) %MON thSI_Tsrf_max_N              =  -3.7888885829685E+00
(PID.TID 0000.0001) %MON thSI_Tic1_ave_G              =  -6.3179026290179E+00
(PID.TID 0000.0001) %MON thSI_Tic1_ave_S              =   0.0000000000000E+00
(PID.TID 0000.0001) %MON thSI_Tic1_ave_N              =  -6.3179026290179E+00
(PID.TID 0000.0001) %MON thSI_Tic1_min_S              =   0.0000000000000E+00
(PID.TID 0000.0001) %MON thSI_Tic1_min_N              =  -6.4949983536265E+00
(PID.TID 0000.0001) %MON thSI_Tic1_max_S              =   0.0000000000000E+00
(PID.TID 0000.0001) %MON thSI_Tic1_max_N              =  -3.2609746671641E+00
(PID.TID 0000.0001) %MON thSI_Tic2_ave_G              =  -3.0480708498423E+00
(PID.TID 0000.0001) %MON thSI_Tic2_ave_S              =   0.0000000000000E+00
(PID.TID 0000.0001) %MON thSI_Tic2_ave_N              =  -3.0480708498423E+00
(PID.TID 0000.0001) %MON thSI_Tic2_min_S              =   0.0000000000000E+00
(PID.TID 0000.0001) %MON thSI_Tic2_min_N              =  -3.1543401944834E+00
(PID.TID 0000.0001) %MON thSI_Tic2_max_S              =   0.0000000000000E+00
(PID.TID 0000.0001) %MON thSI_Tic2_max_N              =  -2.2075236451152E+00
(PID.TID 0000.0001) %MON thSI_TotEnerg_G              =  -7.7482150253514E+18
(PID.TID 0000.0001) // =======================================================
(PID.TID 0000.0001) // End MONITOR Therm.SeaIce statistics
(PID.TID 0000.0001) // =======================================================
 cg2d: Sum(rhs),rhsMax =  -5.82076609134674E-10  2.42066267455031E+04
(PID.TID 0000.0001)      cg2d_init_res =   1.17057198658207E+04
(PID.TID 0000.0001)      cg2d_iters(min,last) =      -1      16
(PID.TID 0000.0001)      cg2d_last_res =   6.99026066073407E-11
(PID.TID 0000.0001) // =======================================================
(PID.TID 0000.0001) // Begin MONITOR dynamic field statistics
(PID.TID 0000.0001) // =======================================================
(PID.TID 0000.0001) %MON time_tsnumber                =                    24
(PID.TID 0000.0001) %MON time_secondsf                =   1.0800000000000E+04
(PID.TID 0000.0001) %MON dynstat_eta_max              =   4.0584622096461E+03
(PID.TID 0000.0001) %MON dynstat_eta_min              =  -8.5745669011664E+02
(PID.TID 0000.0001) %MON dynstat_eta_mean             =   2.7311788227727E-14
(PID.TID 0000.0001) %MON dynstat_eta_sd               =   5.3389913841266E+02
(PID.TID 0000.0001) %MON dynstat_eta_del2             =   4.4212613557147E+00
(PID.TID 0000.0001) %MON dynstat_uvel_max             =   5.7876756948070E+00
(PID.TID 0000.0001) %MON dynstat_uvel_min             =  -6.1054108260565E+00
(PID.TID 0000.0001) %MON dynstat_uvel_mean            =   5.5509387855730E-03
(PID.TID 0000.0001) %MON dynstat_uvel_sd              =   8.3392462483272E-01
(PID.TID 0000.0001) %MON dynstat_uvel_del2            =   1.1797293435412E-03
(PID.TID 0000.0001) %MON dynstat_vvel_max             =   4.9739894756581E+00
(PID.TID 0000.0001) %MON dynstat_vvel_min             =  -6.1665889516772E+00
(PID.TID 0000.0001) %MON dynstat_vvel_mean            =   2.8162060621944E-02
(PID.TID 0000.0001) %MON dynstat_vvel_sd              =   8.0982816758071E-01
(PID.TID 0000.0001) %MON dynstat_vvel_del2            =   1.1362834823348E-03
(PID.TID 0000.0001) %MON dynstat_wvel_max             =   2.7949187025411E-01
(PID.TID 0000.0001) %MON dynstat_wvel_min             =  -1.3843430289256E-01
(PID.TID 0000.0001) %MON dynstat_wvel_mean            =   4.2678005742391E-04
(PID.TID 0000.0001) %MON dynstat_wvel_sd              =   1.0448797716018E-02
(PID.TID 0000.0001) %MON dynstat_wvel_del2            =   1.1582247487645E-04
(PID.TID 0000.0001) %MON dynstat_theta_max            =   4.3813443835023E+02
(PID.TID 0000.0001) %MON dynstat_theta_min            =   2.8388390348138E+02
(PID.TID 0000.0001) %MON dynstat_theta_mean           =   3.3168739386173E+02
(PID.TID 0000.0001) %MON dynstat_theta_sd             =   4.7451104750346E+01
(PID.TID 0000.0001) %MON dynstat_theta_del2           =   1.7892817545856E-03
(PID.TID 0000.0001) %MON dynstat_salt_max             =   4.4527052507310E+00
(PID.TID 0000.0001) %MON dynstat_salt_min             =  -9.9620703940830E-03
(PID.TID 0000.0001) %MON dynstat_salt_mean            =   8.7083492247093E-02
(PID.TID 0000.0001) %MON dynstat_salt_sd              =   3.4612073545098E-01
(PID.TID 0000.0001) %MON dynstat_salt_del2            =   1.0666072157478E-03
(PID.TID 0000.0001) %MON advcfl_uvel_max              =   8.5186812287724E-03
(PID.TID 0000.0001) %MON advcfl_vvel_max              =   8.7901494787147E-03
(PID.TID 0000.0001) %MON advcfl_wvel_max              =   4.5735033314308E-03
(PID.TID 0000.0001) %MON advcfl_W_hf_max              =   8.3820957900607E-03
(PID.TID 0000.0001) %MON am_eta_mean                  =  -1.0813546414673E+10
(PID.TID 0000.0001) %MON am_uZo_mean                  =   1.0726971262878E+10
(PID.TID 0000.0001) %MON am_tot_mean                  =  -8.6575151795216E+07
(PID.TID 0000.0001) %MON pe_b_mean                    =  -1.2028405873241E+00
(PID.TID 0000.0001) %MON ke_max                       =   1.8722511980171E+01
(PID.TID 0000.0001) %MON ke_mean                      =   6.7202912961894E-01
(PID.TID 0000.0001) %MON ke_vol                       =   4.9523908919847E+19
(PID.TID 0000.0001) %MON vort_r_min                   =  -2.2890334548283E-05
(PID.TID 0000.0001) %MON vort_r_max                   =   8.7321450644857E-06
(PID.TID 0000.0001) %MON vort_a_mean                  =   6.7242814765291E-08
(PID.TID 0000.0001) %MON vort_a_sd                    =   8.3989009524614E-05
(PID.TID 0000.0001) %MON vort_p_mean                  =   6.8939466534540E-08
(PID.TID 0000.0001) %MON vort_p_sd                    =   9.1824680923303E-05
(PID.TID 0000.0001) %MON surfExpan_theta_mean         =  -4.4424146489683E-02
(PID.TID 0000.0001) %MON surfExpan_salt_mean          =  -8.6973604987721E-04
(PID.TID 0000.0001) %MON surfExpan_Heat_mean          =   3.3680272176428E+00
(PID.TID 0000.0001) %MON En_Budget_T2PE_mean          =  -6.6311072721744E+00
(PID.TID 0000.0001) // =======================================================
(PID.TID 0000.0001) // End MONITOR dynamic field statistics
(PID.TID 0000.0001) // =======================================================
(PID.TID 0000.0001) // =======================================================
(PID.TID 0000.0001) // Begin MONITOR Land statistics
(PID.TID 0000.0001) // =======================================================
(PID.TID 0000.0001) %MON land_time_sec                =   1.0800000000000E+04
(PID.TID 0000.0001) %MON land_SnwH_ave_G              =   1.5322462168856E-01
(PID.TID 0000.0001) %MON land_SnwH_ave_S              =   5.5904203776207E-01
(PID.TID 0000.0001) %MON land_SnwH_ave_T              =   0.0000000000000E+00
(PID.TID 0000.0001) %MON land_SnwH_ave_N              =   1.2389882070339E-01
(PID.TID 0000.0001) %MON land_SnwH_max_S              =   9.9998697351768E-01
(PID.TID 0000.0001) %MON land_SnwH_max_T              =   0.0000000000000E+00
(PID.TID 0000.0001) %MON land_SnwH_max_N              =   9.9999840348207E-01
(PID.TID 0000.0001) %MON land_Tsrf_ave_G              =  -8.3567767046465E+00
(PID.TID 0000.0001) %MON land_Tsrf_ave_S              =  -7.3318972282319E+00
(PID.TID 0000.0001) %MON land_Tsrf_ave_T              =   1.0373729088149E+01
(PID.TID 0000.0001) %MON land_Tsrf_ave_N              =  -2.1196922275784E+01
(PID.TID 0000.0001) %MON land_Tsrf_min_S              =  -3.3744950473527E+01
(PID.TID 0000.0001) %MON land_Tsrf_min_T              =  -3.6976784812339E+00
(PID.TID 0000.0001) %MON land_Tsrf_min_N              =  -5.2045945993221E+01
(PID.TID 0000.0001) %MON land_Tsrf_max_S              =   2.0490919889985E+01
(PID.TID 0000.0001) %MON land_Tsrf_max_T              =   2.0762034305044E+01
(PID.TID 0000.0001) %MON land_Tsrf_max_N              =   8.6074445630203E+00
(PID.TID 0000.0001) %MON land_Tgr1_ave_G              =  -7.1306450052130E+00
(PID.TID 0000.0001) %MON land_Tgr1_ave_S              =  -7.1379623503420E+00
(PID.TID 0000.0001) %MON land_Tgr1_ave_T              =   1.0373729088149E+01
(PID.TID 0000.0001) %MON land_Tgr1_ave_N              =  -1.8817177527751E+01
(PID.TID 0000.0001) %MON land_Tgr1_min_S              =  -3.9263125126393E+01
(PID.TID 0000.0001) %MON land_Tgr1_min_T              =  -3.6976784812339E+00
(PID.TID 0000.0001) %MON land_Tgr1_min_N              =  -5.4707038014654E+01
(PID.TID 0000.0001) %MON land_Tgr1_max_S              =   2.0490919889985E+01
(PID.TID 0000.0001) %MON land_Tgr1_max_T              =   2.0762034305044E+01
(PID.TID 0000.0001) %MON land_Tgr1_max_N              =   8.6074445630203E+00
(PID.TID 0000.0001) %MON land_Tgr2_ave_G              =   4.2039138836914E+00
(PID.TID 0000.0001) %MON land_Tgr2_ave_S              =  -1.8726844210386E+01
(PID.TID 0000.0001) %MON land_Tgr2_ave_T              =   2.2009617081556E+01
(PID.TID 0000.0001) %MON land_Tgr2_ave_N              =  -2.4761284866252E-01
(PID.TID 0000.0001) %MON land_Tgr2_min_S              =  -6.4751925363760E+01
(PID.TID 0000.0001) %MON land_Tgr2_min_T              =  -9.7038281615297E+00
(PID.TID 0000.0001) %MON land_Tgr2_min_N              =  -4.0199344567943E+01
(PID.TID 0000.0001) %MON land_Tgr2_max_S              =   2.3360091993123E+01
(PID.TID 0000.0001) %MON land_Tgr2_max_T              =   3.1352209228136E+01
(PID.TID 0000.0001) %MON land_Tgr2_max_N              =   2.9822171081917E+01
(PID.TID 0000.0001) %MON land_TotEnerg_G              =  -6.3500661875412E+21
(PID.TID 0000.0001) %MON land_TotEnerg_S              =  -5.0021576014525E+21
(PID.TID 0000.0001) %MON land_TotEnerg_T              =   7.2784139418722E+21
(PID.TID 0000.0001) %MON land_TotEnerg_N              =  -8.6263225279609E+21
(PID.TID 0000.0001) %MON land_grdW_ave_G              =   4.8676624697303E-01
(PID.TID 0000.0001) %MON land_grdW_ave_S              =   3.0853264000905E-01
(PID.TID 0000.0001) %MON land_grdW_ave_T              =   5.6420244915003E-01
(PID.TID 0000.0001) %MON land_grdW_ave_N              =   4.9287452462361E-01
(PID.TID 0000.0001) %MON land_grdW_min_S              =   2.7421989865879E-02
(PID.TID 0000.0001) %MON land_grdW_min_T              =   0.0000000000000E+00
(PID.TID 0000.0001) %MON land_grdW_min_N              =   0.0000000000000E+00
(PID.TID 0000.0001) // =======================================================
(PID.TID 0000.0001) // End MONITOR Land statistics
(PID.TID 0000.0001) // =======================================================
(PID.TID 0000.0001) // =======================================================
(PID.TID 0000.0001) // Begin MONITOR Therm.SeaIce statistics
(PID.TID 0000.0001) // =======================================================
(PID.TID 0000.0001) %MON thSI_time_sec                =   1.0800000000000E+04
(PID.TID 0000.0001) %MON thSI_Ice_Area_G              =   2.1469539234729E+11
(PID.TID 0000.0001) %MON thSI_Ice_Area_S              =   0.0000000000000E+00
(PID.TID 0000.0001) %MON thSI_Ice_Area_N              =   2.1469539234729E+11
(PID.TID 0000.0001) %MON thSI_IceH_ave_G              =   1.1832207981920E-01
(PID.TID 0000.0001) %MON thSI_IceH_ave_S              =   0.0000000000000E+00
(PID.TID 0000.0001) %MON thSI_IceH_ave_N              =   1.1832207981920E-01
(PID.TID 0000.0001) %MON thSI_IceH_max_S              =   0.0000000000000E+00
(PID.TID 0000.0001) %MON thSI_IceH_max_N              =   1.4628845465100E-01
(PID.TID 0000.0001) %MON thSI_SnwH_ave_G              =   0.0000000000000E+00
(PID.TID 0000.0001) %MON thSI_SnwH_ave_S              =   0.0000000000000E+00
(PID.TID 0000.0001) %MON thSI_SnwH_ave_N              =   0.0000000000000E+00
(PID.TID 0000.0001) %MON thSI_SnwH_max_S              =   0.0000000000000E+00
(PID.TID 0000.0001) %MON thSI_SnwH_max_N              =   0.0000000000000E+00
(PID.TID 0000.0001) %MON thSI_Tsrf_ave_G              =  -8.0499712644288E+00
(PID.TID 0000.0001) %MON thSI_Tsrf_ave_S              =   0.0000000000000E+00
(PID.TID 0000.0001) %MON thSI_Tsrf_ave_N              =  -8.0499712644288E+00
(PID.TID 0000.0001) %MON thSI_Tsrf_min_S              =   0.0000000000000E+00
(PID.TID 0000.0001) %MON thSI_Tsrf_min_N              =  -8.9998115977272E+00
(PID.TID 0000.0001) %MON thSI_Tsrf_max_S              =   0.0000000000000E+00
(PID.TID 0000.0001) %MON thSI_Tsrf_max_N              =  -3.8188121587399E+00
(PID.TID 0000.0001) %MON thSI_Tic1_ave_G              =  -6.4072170411942E+00
(PID.TID 0000.0001) %MON thSI_Tic1_ave_S              =   0.0000000000000E+00
(PID.TID 0000.0001) %MON thSI_Tic1_ave_N              =  -6.4072170411942E+00
(PID.TID 0000.0001) %MON thSI_Tic1_min_S              =   0.0000000000000E+00
(PID.TID 0000.0001) %MON thSI_Tic1_min_N              =  -6.5962395403351E+00
(PID.TID 0000.0001) %MON thSI_Tic1_max_S              =   0.0000000000000E+00
(PID.TID 0000.0001) %MON thSI_Tic1_max_N              =  -3.2832577974950E+00
(PID.TID 0000.0001) %MON thSI_Tic2_ave_G              =  -3.0875313116425E+00
(PID.TID 0000.0001) %MON thSI_Tic2_ave_S              =   0.0000000000000E+00
(PID.TID 0000.0001) %MON thSI_Tic2_ave_N              =  -3.0875313116425E+00
(PID.TID 0000.0001) %MON thSI_Tic2_min_S              =   0.0000000000000E+00
(PID.TID 0000.0001) %MON thSI_Tic2_min_N              =  -3.1928179292670E+00
(PID.TID 0000.0001) %MON thSI_Tic2_max_S              =   0.0000000000000E+00
(PID.TID 0000.0001) %MON thSI_Tic2_max_N              =  -2.2148509120900E+00
(PID.TID 0000.0001) %MON thSI_TotEnerg_G              =  -7.8329185393539E+18
(PID.TID 0000.0001) // =======================================================
(PID.TID 0000.0001) // End MONITOR Therm.SeaIce statistics
(PID.TID 0000.0001) // =======================================================
 cg2d: Sum(rhs),rhsMax =   6.98491930961609E-10  2.32553324651980E+04
(PID.TID 0000.0001)      cg2d_init_res =   1.15921616079514E+04
(PID.TID 0000.0001)      cg2d_iters(min,last) =      -1      16
(PID.TID 0000.0001)      cg2d_last_res =   6.91400090457330E-11
(PID.TID 0000.0001) // =======================================================
(PID.TID 0000.0001) // Begin MONITOR dynamic field statistics
(PID.TID 0000.0001) // =======================================================
(PID.TID 0000.0001) %MON time_tsnumber                =                    25
(PID.TID 0000.0001) %MON time_secondsf                =   1.1250000000000E+04
(PID.TID 0000.0001) %MON dynstat_eta_max              =   3.9004236373579E+03
(PID.TID 0000.0001) %MON dynstat_eta_min              =  -8.2088383199571E+02
(PID.TID 0000.0001) %MON dynstat_eta_mean             =   1.6065757781016E-14
(PID.TID 0000.0001) %MON dynstat_eta_sd               =   5.2402360001774E+02
(PID.TID 0000.0001) %MON dynstat_eta_del2             =   4.4087514279091E+00
(PID.TID 0000.0001) %MON dynstat_uvel_max             =   5.6958527004836E+00
(PID.TID 0000.0001) %MON dynstat_uvel_min             =  -5.9766486545240E+00
(PID.TID 0000.0001) %MON dynstat_uvel_mean            =   9.9408370944893E-03
(PID.TID 0000.0001) %MON dynstat_uvel_sd              =   8.3150539616034E-01
(PID.TID 0000.0001) %MON dynstat_uvel_del2            =   1.2060940335881E-03
(PID.TID 0000.0001) %MON dynstat_vvel_max             =   5.0750546802510E+00
(PID.TID 0000.0001) %MON dynstat_vvel_min             =  -6.1954657168703E+00
(PID.TID 0000.0001) %MON dynstat_vvel_mean            =   2.7646473470080E-02
(PID.TID 0000.0001) %MON dynstat_vvel_sd              =   8.1314519444241E-01
(PID.TID 0000.0001) %MON dynstat_vvel_del2            =   1.1682749361986E-03
(PID.TID 0000.0001) %MON dynstat_wvel_max             =   2.5848169011779E-01
(PID.TID 0000.0001) %MON dynstat_wvel_min             =  -1.4013235366380E-01
(PID.TID 0000.0001) %MON dynstat_wvel_mean            =   4.9414102143122E-04
(PID.TID 0000.0001) %MON dynstat_wvel_sd              =   1.0575428277308E-02
(PID.TID 0000.0001) %MON dynstat_wvel_del2            =   1.1792569522633E-04
(PID.TID 0000.0001) %MON dynstat_theta_max            =   4.3803513560970E+02
(PID.TID 0000.0001) %MON dynstat_theta_min            =   2.8366290972692E+02
(PID.TID 0000.0001) %MON dynstat_theta_mean           =   3.3168536460460E+02
(PID.TID 0000.0001) %MON dynstat_theta_sd             =   4.7453140624395E+01
(PID.TID 0000.0001) %MON dynstat_theta_del2           =   1.8517009488366E-03
(PID.TID 0000.0001) %MON dynstat_salt_max             =   4.5081417381917E+00
(PID.TID 0000.0001) %MON dynstat_salt_min             =  -1.1834305472856E-02
(PID.TID 0000.0001) %MON dynstat_salt_mean            =   9.0463325330618E-02
(PID.TID 0000.0001) %MON dynstat_salt_sd              =   3.5815356071786E-01
(PID.TID 0000.0001) %MON dynstat_salt_del2            =   1.0932300173481E-03
(PID.TID 0000.0001) %MON advcfl_uvel_max              =   8.3390235571005E-03
(PID.TID 0000.0001) %MON advcfl_vvel_max              =   8.8313117946237E-03
(PID.TID 0000.0001) %MON advcfl_wvel_max              =   4.2297003837456E-03
(PID.TID 0000.0001) %MON advcfl_W_hf_max              =   8.5723710453692E-03
(PID.TID 0000.0001) %MON am_eta_mean                  =  -1.1482254708633E+10
(PID.TID 0000.0001) %MON am_uZo_mean                  =   1.1387150094924E+10
(PID.TID 0000.0001) %MON am_tot_mean                  =  -9.5104613709587E+07
(PID.TID 0000.0001) %MON pe_b_mean                    =  -1.2113522022157E+00
(PID.TID 0000.0001) %MON ke_max                       =   1.8869440034844E+01
(PID.TID 0000.0001) %MON ke_mean                      =   6.7271955436060E-01
(PID.TID 0000.0001) %MON ke_vol                       =   4.9523908919847E+19
(PID.TID 0000.0001) %MON vort_r_min                   =  -2.2710304072358E-05
(PID.TID 0000.0001) %MON vort_r_max                   =   9.2129665411049E-06
(PID.TID 0000.0001) %MON vort_a_mean                  =   6.7242814765313E-08
(PID.TID 0000.0001) %MON vort_a_sd                    =   8.3991578851993E-05
(PID.TID 0000.0001) %MON vort_p_mean                  =   6.8939467513012E-08
(PID.TID 0000.0001) %MON vort_p_sd                    =   9.1805492814093E-05
(PID.TID 0000.0001) %MON surfExpan_theta_mean         =  -5.0706797737369E-02
(PID.TID 0000.0001) %MON surfExpan_salt_mean          =  -9.6591115853380E-04
(PID.TID 0000.0001) %MON surfExpan_Heat_mean          =   3.9065419160695E+00
(PID.TID 0000.0001) %MON En_Budget_T2PE_mean          =  -7.6359176851671E+00
(PID.TID 0000.0001) // =======================================================
(PID.TID 0000.0001) // End MONITOR dynamic field statistics
(PID.TID 0000.0001) // =======================================================
(PID.TID 0000.0001) // =======================================================
(PID.TID 0000.0001) // Begin MONITOR Land statistics
(PID.TID 0000.0001) // =======================================================
(PID.TID 0000.0001) %MON land_time_sec                =   1.1250000000000E+04
(PID.TID 0000.0001) %MON land_SnwH_ave_G              =   1.5322366500992E-01
(PID.TID 0000.0001) %MON land_SnwH_ave_S              =   5.5904115837633E-01
(PID.TID 0000.0001) %MON land_SnwH_ave_T              =   0.0000000000000E+00
(PID.TID 0000.0001) %MON land_SnwH_ave_N              =   1.2389720010955E-01
(PID.TID 0000.0001) %MON land_SnwH_max_S              =   9.9998641530546E-01
(PID.TID 0000.0001) %MON land_SnwH_max_T              =   0.0000000000000E+00
(PID.TID 0000.0001) %MON land_SnwH_max_N              =   9.9999833995639E-01
(PID.TID 0000.0001) %MON land_Tsrf_ave_G              =  -8.3955339624041E+00
(PID.TID 0000.0001) %MON land_Tsrf_ave_S              =  -7.3338920132677E+00
(PID.TID 0000.0001) %MON land_Tsrf_ave_T              =   1.0285597496747E+01
(PID.TID 0000.0001) %MON land_Tsrf_ave_N              =  -2.1214634327762E+01
(PID.TID 0000.0001) %MON land_Tsrf_min_S              =  -3.3734297255522E+01
(PID.TID 0000.0001) %MON land_Tsrf_min_T              =  -3.5800145417174E+00
(PID.TID 0000.0001) %MON land_Tsrf_min_N              =  -5.2042964549808E+01
(PID.TID 0000.0001) %MON land_Tsrf_max_S              =   2.0399989163417E+01
(PID.TID 0000.0001) %MON land_Tsrf_max_T              =   2.0610236136802E+01
(PID.TID 0000.0001) %MON land_Tsrf_max_N              =   8.4824715634086E+00
(PID.TID 0000.0001) %MON land_Tgr1_ave_G              =  -7.1764800101044E+00
(PID.TID 0000.0001) %MON land_Tgr1_ave_S              =  -7.1642041640318E+00
(PID.TID 0000.0001) %MON land_Tgr1_ave_T              =   1.0285597496747E+01
(PID.TID 0000.0001) %MON land_Tgr1_ave_N              =  -1.8841124027935E+01
(PID.TID 0000.0001) %MON land_Tgr1_min_S              =  -3.9274113662902E+01
(PID.TID 0000.0001) %MON land_Tgr1_min_T              =  -3.5800145417174E+00
(PID.TID 0000.0001) %MON land_Tgr1_min_N              =  -5.4694548621554E+01
(PID.TID 0000.0001) %MON land_Tgr1_max_S              =   2.0399989163417E+01
(PID.TID 0000.0001) %MON land_Tgr1_max_T              =   2.0610236136802E+01
(PID.TID 0000.0001) %MON land_Tgr1_max_N              =   8.4824715634086E+00
(PID.TID 0000.0001) %MON land_Tgr2_ave_G              =   4.2037393953289E+00
(PID.TID 0000.0001) %MON land_Tgr2_ave_S              =  -1.8726650407486E+01
(PID.TID 0000.0001) %MON land_Tgr2_ave_T              =   2.2009427518076E+01
(PID.TID 0000.0001) %MON land_Tgr2_ave_N              =  -2.4789674174660E-01
(PID.TID 0000.0001) %MON land_Tgr2_min_S              =  -6.4751495899908E+01
(PID.TID 0000.0001) %MON land_Tgr2_min_T              =  -9.7037507870615E+00
(PID.TID 0000.0001) %MON land_Tgr2_min_N              =  -4.0199580084814E+01
(PID.TID 0000.0001) %MON land_Tgr2_max_S              =   2.3360028336974E+01
(PID.TID 0000.0001) %MON land_Tgr2_max_T              =   3.1351779037006E+01
(PID.TID 0000.0001) %MON land_Tgr2_max_N              =   2.9821644505679E+01
(PID.TID 0000.0001) %MON land_TotEnerg_G              =  -6.3515219398403E+21
(PID.TID 0000.0001) %MON land_TotEnerg_S              =  -5.0022261896715E+21
(PID.TID 0000.0001) %MON land_TotEnerg_T              =   7.2776304767794E+21
(PID.TID 0000.0001) %MON land_TotEnerg_N              =  -8.6269262269482E+21
(PID.TID 0000.0001) %MON land_grdW_ave_G              =   4.8675844638559E-01
(PID.TID 0000.0001) %MON land_grdW_ave_S              =   3.0852488813014E-01
(PID.TID 0000.0001) %MON land_grdW_ave_T              =   5.6418338237026E-01
(PID.TID 0000.0001) %MON land_grdW_ave_N              =   4.9287423146733E-01
(PID.TID 0000.0001) %MON land_grdW_min_S              =   2.7509006792711E-02
(PID.TID 0000.0001) %MON land_grdW_min_T              =   0.0000000000000E+00
(PID.TID 0000.0001) %MON land_grdW_min_N              =   0.0000000000000E+00
(PID.TID 0000.0001) // =======================================================
(PID.TID 0000.0001) // End MONITOR Land statistics
(PID.TID 0000.0001) // =======================================================
(PID.TID 0000.0001) // =======================================================
(PID.TID 0000.0001) // Begin MONITOR Therm.SeaIce statistics
(PID.TID 0000.0001) // =======================================================
(PID.TID 0000.0001) %MON thSI_time_sec                =   1.1250000000000E+04
(PID.TID 0000.0001) %MON thSI_Ice_Area_G              =   2.1744240049164E+11
(PID.TID 0000.0001) %MON thSI_Ice_Area_S              =   0.0000000000000E+00
(PID.TID 0000.0001) %MON thSI_Ice_Area_N              =   2.1744240049164E+11
(PID.TID 0000.0001) %MON thSI_IceH_ave_G              =   1.1735704598195E-01
(PID.TID 0000.0001) %MON thSI_IceH_ave_S              =   0.0000000000000E+00
(PID.TID 0000.0001) %MON thSI_IceH_ave_N              =   1.1735704598195E-01
(PID.TID 0000.0001) %MON thSI_IceH_max_S              =   0.0000000000000E+00
(PID.TID 0000.0001) %MON thSI_IceH_max_N              =   1.4640313697740E-01
(PID.TID 0000.0001) %MON thSI_SnwH_ave_G              =   0.0000000000000E+00
(PID.TID 0000.0001) %MON thSI_SnwH_ave_S              =   0.0000000000000E+00
(PID.TID 0000.0001) %MON thSI_SnwH_ave_N              =   0.0000000000000E+00
(PID.TID 0000.0001) %MON thSI_SnwH_max_S              =   0.0000000000000E+00
(PID.TID 0000.0001) %MON thSI_SnwH_max_N              =   0.0000000000000E+00
(PID.TID 0000.0001) %MON thSI_Tsrf_ave_G              =  -8.0543316259478E+00
(PID.TID 0000.0001) %MON thSI_Tsrf_ave_S              =   0.0000000000000E+00
(PID.TID 0000.0001) %MON thSI_Tsrf_ave_N              =  -8.0543316259478E+00
(PID.TID 0000.0001) %MON thSI_Tsrf_min_S              =   0.0000000000000E+00
(PID.TID 0000.0001) %MON thSI_Tsrf_min_N              =  -9.0814045101631E+00
(PID.TID 0000.0001) %MON thSI_Tsrf_max_S              =   0.0000000000000E+00
(PID.TID 0000.0001) %MON thSI_Tsrf_max_N              =  -1.6174462466936E+00
(PID.TID 0000.0001) %MON thSI_Tic1_ave_G              =  -6.4840455068912E+00
(PID.TID 0000.0001) %MON thSI_Tic1_ave_S              =   0.0000000000000E+00
(PID.TID 0000.0001) %MON thSI_Tic1_ave_N              =  -6.4840455068912E+00
(PID.TID 0000.0001) %MON thSI_Tic1_min_S              =   0.0000000000000E+00
(PID.TID 0000.0001) %MON thSI_Tic1_min_N              =  -6.6901295945362E+00
(PID.TID 0000.0001) %MON thSI_Tic1_max_S              =   0.0000000000000E+00
(PID.TID 0000.0001) %MON thSI_Tic1_max_N              =  -1.6174462466936E+00
(PID.TID 0000.0001) %MON thSI_Tic2_ave_G              =  -3.1222391425459E+00
(PID.TID 0000.0001) %MON thSI_Tic2_ave_S              =   0.0000000000000E+00
(PID.TID 0000.0001) %MON thSI_Tic2_ave_N              =  -3.1222391425459E+00
(PID.TID 0000.0001) %MON thSI_Tic2_min_S              =   0.0000000000000E+00
(PID.TID 0000.0001) %MON thSI_Tic2_min_N              =  -3.2280855137711E+00
(PID.TID 0000.0001) %MON thSI_Tic2_max_S              =   0.0000000000000E+00
(PID.TID 0000.0001) %MON thSI_Tic2_max_N              =  -1.6174462466936E+00
(PID.TID 0000.0001) %MON thSI_TotEnerg_G              =  -7.8716457103514E+18
(PID.TID 0000.0001) // =======================================================
(PID.TID 0000.0001) // End MONITOR Therm.SeaIce statistics
(PID.TID 0000.0001) // =======================================================
 cg2d: Sum(rhs),rhsMax =   7.56699591875076E-10  2.23060229534586E+04
(PID.TID 0000.0001)      cg2d_init_res =   1.14834645798873E+04
(PID.TID 0000.0001)      cg2d_iters(min,last) =      -1      16
(PID.TID 0000.0001)      cg2d_last_res =   6.95018460828909E-11
(PID.TID 0000.0001) // =======================================================
(PID.TID 0000.0001) // Begin MONITOR dynamic field statistics
(PID.TID 0000.0001) // =======================================================
(PID.TID 0000.0001) %MON time_tsnumber                =                    26
(PID.TID 0000.0001) %MON time_secondsf                =   1.1700000000000E+04
(PID.TID 0000.0001) %MON dynstat_eta_max              =   3.7299875506915E+03
(PID.TID 0000.0001) %MON dynstat_eta_min              =  -7.8796564257476E+02
(PID.TID 0000.0001) %MON dynstat_eta_mean             =  -6.7476182680265E-14
(PID.TID 0000.0001) %MON dynstat_eta_sd               =   5.1348988052324E+02
(PID.TID 0000.0001) %MON dynstat_eta_del2             =   4.3990263570264E+00
(PID.TID 0000.0001) %MON dynstat_uvel_max             =   5.5843352143435E+00
(PID.TID 0000.0001) %MON dynstat_uvel_min             =  -5.8071133433418E+00
(PID.TID 0000.0001) %MON dynstat_uvel_mean            =   1.4894242326986E-02
(PID.TID 0000.0001) %MON dynstat_uvel_sd              =   8.2733252492436E-01
(PID.TID 0000.0001) %MON dynstat_uvel_del2            =   1.2343173422398E-03
(PID.TID 0000.0001) %MON dynstat_vvel_max             =   5.1556881752388E+00
(PID.TID 0000.0001) %MON dynstat_vvel_min             =  -6.1557628629761E+00
(PID.TID 0000.0001) %MON dynstat_vvel_mean            =   2.6956217084270E-02
(PID.TID 0000.0001) %MON dynstat_vvel_sd              =   8.1605990327055E-01
(PID.TID 0000.0001) %MON dynstat_vvel_del2            =   1.2014942344076E-03
(PID.TID 0000.0001) %MON dynstat_wvel_max             =   2.4565881765278E-01
(PID.TID 0000.0001) %MON dynstat_wvel_min             =  -1.3841295357544E-01
(PID.TID 0000.0001) %MON dynstat_wvel_mean            =   5.4195694705405E-04
(PID.TID 0000.0001) %MON dynstat_wvel_sd              =   1.0622837478649E-02
(PID.TID 0000.0001) %MON dynstat_wvel_del2            =   1.1934713035359E-04
(PID.TID 0000.0001) %MON dynstat_theta_max            =   4.3804396961730E+02
(PID.TID 0000.0001) %MON dynstat_theta_min            =   2.8344325808325E+02
(PID.TID 0000.0001) %MON dynstat_theta_mean           =   3.3168329649506E+02
(PID.TID 0000.0001) %MON dynstat_theta_sd             =   4.7455184336875E+01
(PID.TID 0000.0001) %MON dynstat_theta_del2           =   1.9141919499323E-03
(PID.TID 0000.0001) %MON dynstat_salt_max             =   4.5603967687849E+00
(PID.TID 0000.0001) %MON dynstat_salt_min             =  -1.3770032398559E-02
(PID.TID 0000.0001) %MON dynstat_salt_mean            =   9.3831421930057E-02
(PID.TID 0000.0001) %MON dynstat_salt_sd              =   3.7007470157753E-01
(PID.TID 0000.0001) %MON dynstat_salt_del2            =   1.1198164560091E-03
(PID.TID 0000.0001) %MON advcfl_uvel_max              =   8.1324811627834E-03
(PID.TID 0000.0001) %MON advcfl_vvel_max              =   8.7747174564576E-03
(PID.TID 0000.0001) %MON advcfl_wvel_max              =   4.0198715615910E-03
(PID.TID 0000.0001) %MON advcfl_W_hf_max              =   8.5809266770881E-03
(PID.TID 0000.0001) %MON am_eta_mean                  =  -1.2142483835669E+10
(PID.TID 0000.0001) %MON am_uZo_mean                  =   1.2038764450352E+10
(PID.TID 0000.0001) %MON am_tot_mean                  =  -1.0371938531656E+08
(PID.TID 0000.0001) %MON pe_b_mean                    =  -1.2179406712889E+00
(PID.TID 0000.0001) %MON ke_max                       =   1.8621400910311E+01
(PID.TID 0000.0001) %MON ke_mean                      =   6.7167901714925E-01
(PID.TID 0000.0001) %MON ke_vol                       =   4.9523908919847E+19
(PID.TID 0000.0001) %MON vort_r_min                   =  -2.2175731289782E-05
(PID.TID 0000.0001) %MON vort_r_max                   =   9.6981434107287E-06
(PID.TID 0000.0001) %MON vort_a_mean                  =   6.7242814765293E-08
(PID.TID 0000.0001) %MON vort_a_sd                    =   8.3994100507543E-05
(PID.TID 0000.0001) %MON vort_p_mean                  =   6.8939468640829E-08
(PID.TID 0000.0001) %MON vort_p_sd                    =   9.1786011262585E-05
(PID.TID 0000.0001) %MON surfExpan_theta_mean         =  -5.5050386426774E-02
(PID.TID 0000.0001) %MON surfExpan_salt_mean          =  -1.0645324134217E-03
(PID.TID 0000.0001) %MON surfExpan_Heat_mean          =   4.2846910512282E+00
(PID.TID 0000.0001) %MON En_Budget_T2PE_mean          =  -8.3383020961649E+00
(PID.TID 0000.0001) // =======================================================
(PID.TID 0000.0001) // End MONITOR dynamic field statistics
(PID.TID 0000.0001) // =======================================================
(PID.TID 0000.0001) // =======================================================
(PID.TID 0000.0001) // Begin MONITOR Land statistics
(PID.TID 0000.0001) // =======================================================
(PID.TID 0000.0001) %MON land_time_sec                =   1.1700000000000E+04
(PID.TID 0000.0001) %MON land_SnwH_ave_G              =   1.5322271022515E-01
(PID.TID 0000.0001) %MON land_SnwH_ave_S              =   5.5904027897292E-01
(PID.TID 0000.0001) %MON land_SnwH_ave_T              =   0.0000000000000E+00
(PID.TID 0000.0001) %MON land_SnwH_ave_N              =   1.2389558329434E-01
(PID.TID 0000.0001) %MON land_SnwH_max_S              =   9.9998585705966E-01
(PID.TID 0000.0001) %MON land_SnwH_max_T              =   0.0000000000000E+00
(PID.TID 0000.0001) %MON land_SnwH_max_N              =   9.9999827637752E-01
(PID.TID 0000.0001) %MON land_Tsrf_ave_G              =  -8.4312947458260E+00
(PID.TID 0000.0001) %MON land_Tsrf_ave_S              =  -7.3374869436979E+00
(PID.TID 0000.0001) %MON land_Tsrf_ave_T              =   1.0204877033554E+01
(PID.TID 0000.0001) %MON land_Tsrf_ave_N              =  -2.1230806765995E+01
(PID.TID 0000.0001) %MON land_Tsrf_min_S              =  -3.3720330994789E+01
(PID.TID 0000.0001) %MON land_Tsrf_min_T              =  -3.4659859617787E+00
(PID.TID 0000.0001) %MON land_Tsrf_min_N              =  -5.2039046780035E+01
(PID.TID 0000.0001) %MON land_Tsrf_max_S              =   2.0320552127926E+01
(PID.TID 0000.0001) %MON land_Tsrf_max_T              =   2.0474405790189E+01
(PID.TID 0000.0001) %MON land_Tsrf_max_N              =   8.3651008761614E+00
(PID.TID 0000.0001) %MON land_Tgr1_ave_G              =  -7.2185145027348E+00
(PID.TID 0000.0001) %MON land_Tgr1_ave_S              =  -7.1872226758087E+00
(PID.TID 0000.0001) %MON land_Tgr1_ave_T              =   1.0204877033554E+01
(PID.TID 0000.0001) %MON land_Tgr1_ave_N              =  -1.8863493835481E+01
(PID.TID 0000.0001) %MON land_Tgr1_min_S              =  -3.9285062095316E+01
(PID.TID 0000.0001) %MON land_Tgr1_min_T              =  -3.4659859617787E+00
(PID.TID 0000.0001) %MON land_Tgr1_min_N              =  -5.4682076043787E+01
(PID.TID 0000.0001) %MON land_Tgr1_max_S              =   2.0320552127926E+01
(PID.TID 0000.0001) %MON land_Tgr1_max_T              =   2.0474405790189E+01
(PID.TID 0000.0001) %MON land_Tgr1_max_N              =   8.3651008761614E+00
(PID.TID 0000.0001) %MON land_Tgr2_ave_G              =   4.2035642879724E+00
(PID.TID 0000.0001) %MON land_Tgr2_ave_S              =  -1.8726456972037E+01
(PID.TID 0000.0001) %MON land_Tgr2_ave_T              =   2.2009236793298E+01
(PID.TID 0000.0001) %MON land_Tgr2_ave_N              =  -2.4818097328923E-01
(PID.TID 0000.0001) %MON land_Tgr2_min_S              =  -6.4751066643767E+01
(PID.TID 0000.0001) %MON land_Tgr2_min_T              =  -9.7036719730727E+00
(PID.TID 0000.0001) %MON land_Tgr2_min_N              =  -4.0199815366203E+01
(PID.TID 0000.0001) %MON land_Tgr2_max_S              =   2.3359962969154E+01
(PID.TID 0000.0001) %MON land_Tgr2_max_T              =   3.1351346237851E+01
(PID.TID 0000.0001) %MON land_Tgr2_max_N              =   2.9821113101772E+01
(PID.TID 0000.0001) %MON land_TotEnerg_G              =  -6.3528931447596E+21
(PID.TID 0000.0001) %MON land_TotEnerg_S              =  -5.0022836730784E+21
(PID.TID 0000.0001) %MON land_TotEnerg_T              =   7.2769091051900E+21
(PID.TID 0000.0001) %MON land_TotEnerg_N              =  -8.6275185768712E+21
(PID.TID 0000.0001) %MON land_grdW_ave_G              =   4.8675075359825E-01
(PID.TID 0000.0001) %MON land_grdW_ave_S              =   3.0851720483004E-01
(PID.TID 0000.0001) %MON land_grdW_ave_T              =   5.6416460175094E-01
(PID.TID 0000.0001) %MON land_grdW_ave_N              =   4.9287393973049E-01
(PID.TID 0000.0001) %MON land_grdW_min_S              =   2.7596024068127E-02
(PID.TID 0000.0001) %MON land_grdW_min_T              =   0.0000000000000E+00
(PID.TID 0000.0001) %MON land_grdW_min_N              =   0.0000000000000E+00
(PID.TID 0000.0001) // =======================================================
(PID.TID 0000.0001) // End MONITOR Land statistics
(PID.TID 0000.0001) // =======================================================
(PID.TID 0000.0001) // =======================================================
(PID.TID 0000.0001) // Begin MONITOR Therm.SeaIce statistics
(PID.TID 0000.0001) // =======================================================
(PID.TID 0000.0001) %MON thSI_time_sec                =   1.1700000000000E+04
(PID.TID 0000.0001) %MON thSI_Ice_Area_G              =   2.2009718804170E+11
(PID.TID 0000.0001) %MON thSI_Ice_Area_S              =   0.0000000000000E+00
(PID.TID 0000.0001) %MON thSI_Ice_Area_N              =   2.2009718804170E+11
(PID.TID 0000.0001) %MON thSI_IceH_ave_G              =   1.1646928814451E-01
(PID.TID 0000.0001) %MON thSI_IceH_ave_S              =   0.0000000000000E+00
(PID.TID 0000.0001) %MON thSI_IceH_ave_N              =   1.1646928814451E-01
(PID.TID 0000.0001) %MON thSI_IceH_max_S              =   0.0000000000000E+00
(PID.TID 0000.0001) %MON thSI_IceH_max_N              =   1.4652141923843E-01
(PID.TID 0000.0001) %MON thSI_SnwH_ave_G              =   0.0000000000000E+00
(PID.TID 0000.0001) %MON thSI_SnwH_ave_S              =   0.0000000000000E+00
(PID.TID 0000.0001) %MON thSI_SnwH_ave_N              =   0.0000000000000E+00
(PID.TID 0000.0001) %MON thSI_SnwH_max_S              =   0.0000000000000E+00
(PID.TID 0000.0001) %MON thSI_SnwH_max_N              =   0.0000000000000E+00
(PID.TID 0000.0001) %MON thSI_Tsrf_ave_G              =  -8.0647307344095E+00
(PID.TID 0000.0001) %MON thSI_Tsrf_ave_S              =   0.0000000000000E+00
(PID.TID 0000.0001) %MON thSI_Tsrf_ave_N              =  -8.0647307344095E+00
(PID.TID 0000.0001) %MON thSI_Tsrf_min_S              =   0.0000000000000E+00
(PID.TID 0000.0001) %MON thSI_Tsrf_min_N              =  -9.1561162684741E+00
(PID.TID 0000.0001) %MON thSI_Tsrf_max_S              =   0.0000000000000E+00
(PID.TID 0000.0001) %MON thSI_Tsrf_max_N              =  -2.5736325623280E+00
(PID.TID 0000.0001) %MON thSI_Tic1_ave_G              =  -6.5577319555909E+00
(PID.TID 0000.0001) %MON thSI_Tic1_ave_S              =   0.0000000000000E+00
(PID.TID 0000.0001) %MON thSI_Tic1_ave_N              =  -6.5577319555909E+00
(PID.TID 0000.0001) %MON thSI_Tic1_min_S              =   0.0000000000000E+00
(PID.TID 0000.0001) %MON thSI_Tic1_min_N              =  -6.7804352035063E+00
(PID.TID 0000.0001) %MON thSI_Tic1_max_S              =   0.0000000000000E+00
(PID.TID 0000.0001) %MON thSI_Tic1_max_N              =  -2.2327822747592E+00
(PID.TID 0000.0001) %MON thSI_Tic2_ave_G              =  -3.1585359573226E+00
(PID.TID 0000.0001) %MON thSI_Tic2_ave_S              =   0.0000000000000E+00
(PID.TID 0000.0001) %MON thSI_Tic2_ave_N              =  -3.1585359573226E+00
(PID.TID 0000.0001) %MON thSI_Tic2_min_S              =   0.0000000000000E+00
(PID.TID 0000.0001) %MON thSI_Tic2_min_N              =  -3.2655830043850E+00
(PID.TID 0000.0001) %MON thSI_Tic2_max_S              =   0.0000000000000E+00
(PID.TID 0000.0001) %MON thSI_Tic2_max_N              =  -1.8142372948812E+00
(PID.TID 0000.0001) %MON thSI_TotEnerg_G              =  -7.9104608649349E+18
(PID.TID 0000.0001) // =======================================================
(PID.TID 0000.0001) // End MONITOR Therm.SeaIce statistics
(PID.TID 0000.0001) // =======================================================
 cg2d: Sum(rhs),rhsMax =   0.00000000000000E+00  2.14032984113868E+04
(PID.TID 0000.0001)      cg2d_init_res =   1.13759439071328E+04
(PID.TID 0000.0001)      cg2d_iters(min,last) =      -1      16
(PID.TID 0000.0001)      cg2d_last_res =   6.97058233042299E-11
(PID.TID 0000.0001) // =======================================================
(PID.TID 0000.0001) // Begin MONITOR dynamic field statistics
(PID.TID 0000.0001) // =======================================================
(PID.TID 0000.0001) %MON time_tsnumber                =                    27
(PID.TID 0000.0001) %MON time_secondsf                =   1.2150000000000E+04
(PID.TID 0000.0001) %MON dynstat_eta_max              =   3.5581737895231E+03
(PID.TID 0000.0001) %MON dynstat_eta_min              =  -7.6402085225023E+02
(PID.TID 0000.0001) %MON dynstat_eta_mean             =  -9.6394546686094E-15
(PID.TID 0000.0001) %MON dynstat_eta_sd               =   5.0262284362516E+02
(PID.TID 0000.0001) %MON dynstat_eta_del2             =   4.3927571034759E+00
(PID.TID 0000.0001) %MON dynstat_uvel_max             =   5.4550268708719E+00
(PID.TID 0000.0001) %MON dynstat_uvel_min             =  -5.7558812511754E+00
(PID.TID 0000.0001) %MON dynstat_uvel_mean            =   2.0369455038581E-02
(PID.TID 0000.0001) %MON dynstat_uvel_sd              =   8.2170474867885E-01
(PID.TID 0000.0001) %MON dynstat_uvel_del2            =   1.2645841884417E-03
(PID.TID 0000.0001) %MON dynstat_vvel_max             =   5.2038424408742E+00
(PID.TID 0000.0001) %MON dynstat_vvel_min             =  -6.0567606213007E+00
(PID.TID 0000.0001) %MON dynstat_vvel_mean            =   2.6145124687447E-02
(PID.TID 0000.0001) %MON dynstat_vvel_sd              =   8.1815438817334E-01
(PID.TID 0000.0001) %MON dynstat_vvel_del2            =   1.2357816102933E-03
(PID.TID 0000.0001) %MON dynstat_wvel_max             =   2.4798379010163E-01
(PID.TID 0000.0001) %MON dynstat_wvel_min             =  -1.3348622576956E-01
(PID.TID 0000.0001) %MON dynstat_wvel_mean            =   5.7100030881083E-04
(PID.TID 0000.0001) %MON dynstat_wvel_sd              =   1.0604990422113E-02
(PID.TID 0000.0001) %MON dynstat_wvel_del2            =   1.2015045361808E-04
(PID.TID 0000.0001) %MON dynstat_theta_max            =   4.3807628360880E+02
(PID.TID 0000.0001) %MON dynstat_theta_min            =   2.8322491580763E+02
(PID.TID 0000.0001) %MON dynstat_theta_mean           =   3.3168119135025E+02
(PID.TID 0000.0001) %MON dynstat_theta_sd             =   4.7457235252434E+01
(PID.TID 0000.0001) %MON dynstat_theta_del2           =   1.9766355562006E-03
(PID.TID 0000.0001) %MON dynstat_salt_max             =   4.6098206101056E+00
(PID.TID 0000.0001) %MON dynstat_salt_min             =  -1.5769005513025E-02
(PID.TID 0000.0001) %MON dynstat_salt_mean            =   9.7188148493009E-02
(PID.TID 0000.0001) %MON dynstat_salt_sd              =   3.8188710971147E-01
(PID.TID 0000.0001) %MON dynstat_salt_del2            =   1.1464507674062E-03
(PID.TID 0000.0001) %MON advcfl_uvel_max              =   8.0365838717316E-03
(PID.TID 0000.0001) %MON advcfl_vvel_max              =   8.6335949477459E-03
(PID.TID 0000.0001) %MON advcfl_wvel_max              =   4.0579165652995E-03
(PID.TID 0000.0001) %MON advcfl_W_hf_max              =   8.6071818149174E-03
(PID.TID 0000.0001) %MON am_eta_mean                  =  -1.2791468377672E+10
(PID.TID 0000.0001) %MON am_uZo_mean                  =   1.2679065975608E+10
(PID.TID 0000.0001) %MON am_tot_mean                  =  -1.1240240206393E+08
(PID.TID 0000.0001) %MON pe_b_mean                    =  -1.2225309499827E+00
(PID.TID 0000.0001) %MON ke_max                       =   1.8304441957508E+01
(PID.TID 0000.0001) %MON ke_mean                      =   6.6883903995960E-01
(PID.TID 0000.0001) %MON ke_vol                       =   4.9523908919847E+19
(PID.TID 0000.0001) %MON vort_r_min                   =  -2.1352745830502E-05
(PID.TID 0000.0001) %MON vort_r_max                   =   1.0190923895459E-05
(PID.TID 0000.0001) %MON vort_a_mean                  =   6.7242814765306E-08
(PID.TID 0000.0001) %MON vort_a_sd                    =   8.3996571680872E-05
(PID.TID 0000.0001) %MON vort_p_mean                  =   6.8939469926115E-08
(PID.TID 0000.0001) %MON vort_p_sd                    =   9.1766670109605E-05
(PID.TID 0000.0001) %MON surfExpan_theta_mean         =  -5.7540341629383E-02
(PID.TID 0000.0001) %MON surfExpan_salt_mean          =  -1.1639685470233E-03
(PID.TID 0000.0001) %MON surfExpan_Heat_mean          =   4.5092137822715E+00
(PID.TID 0000.0001) %MON En_Budget_T2PE_mean          =  -8.7511604308954E+00
(PID.TID 0000.0001) // =======================================================
(PID.TID 0000.0001) // End MONITOR dynamic field statistics
(PID.TID 0000.0001) // =======================================================
(PID.TID 0000.0001) // =======================================================
(PID.TID 0000.0001) // Begin MONITOR Land statistics
(PID.TID 0000.0001) // =======================================================
(PID.TID 0000.0001) %MON land_time_sec                =   1.2150000000000E+04
(PID.TID 0000.0001) %MON land_SnwH_ave_G              =   1.5322175748811E-01
(PID.TID 0000.0001) %MON land_SnwH_ave_S              =   5.5903940093792E-01
(PID.TID 0000.0001) %MON land_SnwH_ave_T              =   0.0000000000000E+00
(PID.TID 0000.0001) %MON land_SnwH_ave_N              =   1.2389397011463E-01
(PID.TID 0000.0001) %MON land_SnwH_max_S              =   9.9998529845513E-01
(PID.TID 0000.0001) %MON land_SnwH_max_T              =   0.0000000000000E+00
(PID.TID 0000.0001) %MON land_SnwH_max_N              =   9.9999821274293E-01
(PID.TID 0000.0001) %MON land_Tsrf_ave_G              =  -8.4642654164431E+00
(PID.TID 0000.0001) %MON land_Tsrf_ave_S              =  -7.3428168929323E+00
(PID.TID 0000.0001) %MON land_Tsrf_ave_T              =   1.0131246539024E+01
(PID.TID 0000.0001) %MON land_Tsrf_ave_N              =  -2.1245592483588E+01
(PID.TID 0000.0001) %MON land_Tsrf_min_S              =  -3.3703139289285E+01
(PID.TID 0000.0001) %MON land_Tsrf_min_T              =  -3.3555325550213E+00
(PID.TID 0000.0001) %MON land_Tsrf_min_N              =  -5.2034747342721E+01
(PID.TID 0000.0001) %MON land_Tsrf_max_S              =   2.0251507656698E+01
(PID.TID 0000.0001) %MON land_Tsrf_max_T              =   2.0353107537173E+01
(PID.TID 0000.0001) %MON land_Tsrf_max_N              =   8.2550124355396E+00
(PID.TID 0000.0001) %MON land_Tgr1_ave_G              =  -7.2569695001905E+00
(PID.TID 0000.0001) %MON land_Tgr1_ave_S              =  -7.2073755276324E+00
(PID.TID 0000.0001) %MON land_Tgr1_ave_T              =   1.0131246539024E+01
(PID.TID 0000.0001) %MON land_Tgr1_ave_N              =  -1.8884396775010E+01
(PID.TID 0000.0001) %MON land_Tgr1_min_S              =  -3.9295971810155E+01
(PID.TID 0000.0001) %MON land_Tgr1_min_T              =  -3.3555325550213E+00
(PID.TID 0000.0001) %MON land_Tgr1_min_N              =  -5.4669619882030E+01
(PID.TID 0000.0001) %MON land_Tgr1_max_S              =   2.0251507656698E+01
(PID.TID 0000.0001) %MON land_Tgr1_max_T              =   2.0353107537173E+01
(PID.TID 0000.0001) %MON land_Tgr1_max_N              =   8.2550124355396E+00
(PID.TID 0000.0001) %MON land_Tgr2_ave_G              =   4.2033886226989E+00
(PID.TID 0000.0001) %MON land_Tgr2_ave_S              =  -1.8726263858538E+01
(PID.TID 0000.0001) %MON land_Tgr2_ave_T              =   2.2009045023104E+01
(PID.TID 0000.0001) %MON land_Tgr2_ave_N              =  -2.4846551375687E-01
(PID.TID 0000.0001) %MON land_Tgr2_min_S              =  -6.4750637594721E+01
(PID.TID 0000.0001) %MON land_Tgr2_min_T              =  -9.7035917647634E+00
(PID.TID 0000.0001) %MON land_Tgr2_min_N              =  -4.0200050412759E+01
(PID.TID 0000.0001) %MON land_Tgr2_max_S              =   2.3359896064414E+01
(PID.TID 0000.0001) %MON land_Tgr2_max_T              =   3.1350910992379E+01
(PID.TID 0000.0001) %MON land_Tgr2_max_N              =   2.9820577055395E+01
(PID.TID 0000.0001) %MON land_TotEnerg_G              =  -6.3541879285566E+21
(PID.TID 0000.0001) %MON land_TotEnerg_S              =  -5.0023312892763E+21
(PID.TID 0000.0001) %MON land_TotEnerg_T              =   7.2762434400896E+21
(PID.TID 0000.0001) %MON land_TotEnerg_N              =  -8.6281000793699E+21
(PID.TID 0000.0001) %MON land_grdW_ave_G              =   4.8674315735045E-01
(PID.TID 0000.0001) %MON land_grdW_ave_S              =   3.0850958339902E-01
(PID.TID 0000.0001) %MON land_grdW_ave_T              =   5.6414607733743E-01
(PID.TID 0000.0001) %MON land_grdW_ave_N              =   4.9287364915964E-01
(PID.TID 0000.0001) %MON land_grdW_min_S              =   2.7682957987499E-02
(PID.TID 0000.0001) %MON land_grdW_min_T              =   0.0000000000000E+00
(PID.TID 0000.0001) %MON land_grdW_min_N              =   0.0000000000000E+00
(PID.TID 0000.0001) // =======================================================
(PID.TID 0000.0001) // End MONITOR Land statistics
(PID.TID 0000.0001) // =======================================================
(PID.TID 0000.0001) // =======================================================
(PID.TID 0000.0001) // Begin MONITOR Therm.SeaIce statistics
(PID.TID 0000.0001) // =======================================================
(PID.TID 0000.0001) %MON thSI_time_sec                =   1.2150000000000E+04
(PID.TID 0000.0001) %MON thSI_Ice_Area_G              =   2.2266541428171E+11
(PID.TID 0000.0001) %MON thSI_Ice_Area_S              =   0.0000000000000E+00
(PID.TID 0000.0001) %MON thSI_Ice_Area_N              =   2.2266541428171E+11
(PID.TID 0000.0001) %MON thSI_IceH_ave_G              =   1.1565265722598E-01
(PID.TID 0000.0001) %MON thSI_IceH_ave_S              =   0.0000000000000E+00
(PID.TID 0000.0001) %MON thSI_IceH_ave_N              =   1.1565265722598E-01
(PID.TID 0000.0001) %MON thSI_IceH_max_S              =   0.0000000000000E+00
(PID.TID 0000.0001) %MON thSI_IceH_max_N              =   1.4664301988734E-01
(PID.TID 0000.0001) %MON thSI_SnwH_ave_G              =   0.0000000000000E+00
(PID.TID 0000.0001) %MON thSI_SnwH_ave_S              =   0.0000000000000E+00
(PID.TID 0000.0001) %MON thSI_SnwH_ave_N              =   0.0000000000000E+00
(PID.TID 0000.0001) %MON thSI_SnwH_max_S              =   0.0000000000000E+00
(PID.TID 0000.0001) %MON thSI_SnwH_max_N              =   0.0000000000000E+00
(PID.TID 0000.0001) %MON thSI_Tsrf_ave_G              =  -8.0717323260644E+00
(PID.TID 0000.0001) %MON thSI_Tsrf_ave_S              =   0.0000000000000E+00
(PID.TID 0000.0001) %MON thSI_Tsrf_ave_N              =  -8.0717323260644E+00
(PID.TID 0000.0001) %MON thSI_Tsrf_min_S              =   0.0000000000000E+00
(PID.TID 0000.0001) %MON thSI_Tsrf_min_N              =  -9.2252018820846E+00
(PID.TID 0000.0001) %MON thSI_Tsrf_max_S              =   0.0000000000000E+00
(PID.TID 0000.0001) %MON thSI_Tsrf_max_N              =  -2.8517359821296E+00
(PID.TID 0000.0001) %MON thSI_Tic1_ave_G              =  -6.6247049733676E+00
(PID.TID 0000.0001) %MON thSI_Tic1_ave_S              =   0.0000000000000E+00
(PID.TID 0000.0001) %MON thSI_Tic1_ave_N              =  -6.6247049733676E+00
(PID.TID 0000.0001) %MON thSI_Tic1_min_S              =   0.0000000000000E+00
(PID.TID 0000.0001) %MON thSI_Tic1_min_N              =  -6.8640470202570E+00
(PID.TID 0000.0001) %MON thSI_Tic1_max_S              =   0.0000000000000E+00
(PID.TID 0000.0001) %MON thSI_Tic1_max_N              =  -2.5099986557739E+00
(PID.TID 0000.0001) %MON thSI_Tic2_ave_G              =  -3.1913905842525E+00
(PID.TID 0000.0001) %MON thSI_Tic2_ave_S              =   0.0000000000000E+00
(PID.TID 0000.0001) %MON thSI_Tic2_ave_N              =  -3.1913905842525E+00
(PID.TID 0000.0001) %MON thSI_Tic2_min_S              =   0.0000000000000E+00
(PID.TID 0000.0001) %MON thSI_Tic2_min_N              =  -3.2994271039791E+00
(PID.TID 0000.0001) %MON thSI_Tic2_max_S              =   0.0000000000000E+00
(PID.TID 0000.0001) %MON thSI_Tic2_max_N              =  -1.9104131942708E+00
(PID.TID 0000.0001) %MON thSI_TotEnerg_G              =  -7.9493570878571E+18
(PID.TID 0000.0001) // =======================================================
(PID.TID 0000.0001) // End MONITOR Therm.SeaIce statistics
(PID.TID 0000.0001) // =======================================================
 cg2d: Sum(rhs),rhsMax =  -1.04773789644241E-09  2.05778657627056E+04
(PID.TID 0000.0001)      cg2d_init_res =   1.12636053968705E+04
(PID.TID 0000.0001)      cg2d_iters(min,last) =      -1      16
(PID.TID 0000.0001)      cg2d_last_res =   6.86888779308520E-11
(PID.TID 0000.0001) // =======================================================
(PID.TID 0000.0001) // Begin MONITOR dynamic field statistics
(PID.TID 0000.0001) // =======================================================
(PID.TID 0000.0001) %MON time_tsnumber                =                    28
(PID.TID 0000.0001) %MON time_secondsf                =   1.2600000000000E+04
(PID.TID 0000.0001) %MON dynstat_eta_max              =   3.3936648295022E+03
(PID.TID 0000.0001) %MON dynstat_eta_min              =  -7.6197833702275E+02
(PID.TID 0000.0001) %MON dynstat_eta_mean             =  -2.8918364005828E-14
(PID.TID 0000.0001) %MON dynstat_eta_sd               =   4.9173798990190E+02
(PID.TID 0000.0001) %MON dynstat_eta_del2             =   4.3902108110546E+00
(PID.TID 0000.0001) %MON dynstat_uvel_max             =   5.3112249238963E+00
(PID.TID 0000.0001) %MON dynstat_uvel_min             =  -5.6776224143508E+00
(PID.TID 0000.0001) %MON dynstat_uvel_mean            =   2.6309905493868E-02
(PID.TID 0000.0001) %MON dynstat_uvel_sd              =   8.1493758029787E-01
(PID.TID 0000.0001) %MON dynstat_uvel_del2            =   1.2970769372784E-03
(PID.TID 0000.0001) %MON dynstat_vvel_max             =   5.2153513904254E+00
(PID.TID 0000.0001) %MON dynstat_vvel_min             =  -5.9345685464380E+00
(PID.TID 0000.0001) %MON dynstat_vvel_mean            =   2.5274438065206E-02
(PID.TID 0000.0001) %MON dynstat_vvel_sd              =   8.1907982860116E-01
(PID.TID 0000.0001) %MON dynstat_vvel_del2            =   1.2708650012912E-03
(PID.TID 0000.0001) %MON dynstat_wvel_max             =   2.4462340953183E-01
(PID.TID 0000.0001) %MON dynstat_wvel_min             =  -1.2573298563044E-01
(PID.TID 0000.0001) %MON dynstat_wvel_mean            =   5.8273243857606E-04
(PID.TID 0000.0001) %MON dynstat_wvel_sd              =   1.0534491159936E-02
(PID.TID 0000.0001) %MON dynstat_wvel_del2            =   1.2039798085787E-04
(PID.TID 0000.0001) %MON dynstat_theta_max            =   4.3811730341994E+02
(PID.TID 0000.0001) %MON dynstat_theta_min            =   2.8300784103474E+02
(PID.TID 0000.0001) %MON dynstat_theta_mean           =   3.3167905134712E+02
(PID.TID 0000.0001) %MON dynstat_theta_sd             =   4.7459293089881E+01
(PID.TID 0000.0001) %MON dynstat_theta_del2           =   2.0389167788598E-03
(PID.TID 0000.0001) %MON dynstat_salt_max             =   4.6564392439495E+00
(PID.TID 0000.0001) %MON dynstat_salt_min             =  -1.7830991201765E-02
(PID.TID 0000.0001) %MON dynstat_salt_mean            =   1.0053383178356E-01
(PID.TID 0000.0001) %MON dynstat_salt_sd              =   3.9359399125298E-01
(PID.TID 0000.0001) %MON dynstat_salt_del2            =   1.1732973840990E-03
(PID.TID 0000.0001) %MON advcfl_uvel_max              =   7.9273158589983E-03
(PID.TID 0000.0001) %MON advcfl_vvel_max              =   8.4843916285051E-03
(PID.TID 0000.0001) %MON advcfl_wvel_max              =   4.0029285196117E-03
(PID.TID 0000.0001) %MON advcfl_W_hf_max              =   9.0317096501293E-03
(PID.TID 0000.0001) %MON am_eta_mean                  =  -1.3426592158124E+10
(PID.TID 0000.0001) %MON am_uZo_mean                  =   1.3305456642675E+10
(PID.TID 0000.0001) %MON am_tot_mean                  =  -1.2113551544914E+08
(PID.TID 0000.0001) %MON pe_b_mean                    =  -1.2251126662370E+00
(PID.TID 0000.0001) %MON ke_max                       =   1.7680373194990E+01
(PID.TID 0000.0001) %MON ke_mean                      =   6.6419927393482E-01
(PID.TID 0000.0001) %MON ke_vol                       =   4.9523908919847E+19
(PID.TID 0000.0001) %MON vort_r_min                   =  -2.0699690404071E-05
(PID.TID 0000.0001) %MON vort_r_max                   =   1.0695141036187E-05
(PID.TID 0000.0001) %MON vort_a_mean                  =   6.7242814765348E-08
(PID.TID 0000.0001) %MON vort_a_sd                    =   8.3998989965849E-05
(PID.TID 0000.0001) %MON vort_p_mean                  =   6.8939471354347E-08
(PID.TID 0000.0001) %MON vort_p_sd                    =   9.1747830230207E-05
(PID.TID 0000.0001) %MON surfExpan_theta_mean         =  -5.8331996971056E-02
(PID.TID 0000.0001) %MON surfExpan_salt_mean          =  -1.2624662895427E-03
(PID.TID 0000.0001) %MON surfExpan_Heat_mean          =   4.5924175302775E+00
(PID.TID 0000.0001) %MON En_Budget_T2PE_mean          =  -8.8980652922969E+00
(PID.TID 0000.0001) // =======================================================
(PID.TID 0000.0001) // End MONITOR dynamic field statistics
(PID.TID 0000.0001) // =======================================================
(PID.TID 0000.0001) // =======================================================
(PID.TID 0000.0001) // Begin MONITOR Land statistics
(PID.TID 0000.0001) // =======================================================
(PID.TID 0000.0001) %MON land_time_sec                =   1.2600000000000E+04
(PID.TID 0000.0001) %MON land_SnwH_ave_G              =   1.5322080694730E-01
(PID.TID 0000.0001) %MON land_SnwH_ave_S              =   5.5903852557447E-01
(PID.TID 0000.0001) %MON land_SnwH_ave_T              =   0.0000000000000E+00
(PID.TID 0000.0001) %MON land_SnwH_ave_N              =   1.2389236044354E-01
(PID.TID 0000.0001) %MON land_SnwH_max_S              =   9.9998473919145E-01
(PID.TID 0000.0001) %MON land_SnwH_max_T              =   0.0000000000000E+00
(PID.TID 0000.0001) %MON land_SnwH_max_N              =   9.9999814905508E-01
(PID.TID 0000.0001) %MON land_Tsrf_ave_G              =  -8.4949516592845E+00
(PID.TID 0000.0001) %MON land_Tsrf_ave_S              =  -7.3495792496931E+00
(PID.TID 0000.0001) %MON land_Tsrf_ave_T              =   1.0063406385658E+01
(PID.TID 0000.0001) %MON land_Tsrf_ave_N              =  -2.1259229200532E+01
(PID.TID 0000.0001) %MON land_Tsrf_min_S              =  -3.3682888179792E+01
(PID.TID 0000.0001) %MON land_Tsrf_min_T              =  -3.2486023656901E+00
(PID.TID 0000.0001) %MON land_Tsrf_min_N              =  -5.2030423129830E+01
(PID.TID 0000.0001) %MON land_Tsrf_max_S              =   2.0191850040939E+01
(PID.TID 0000.0001) %MON land_Tsrf_max_T              =   2.0245031677863E+01
(PID.TID 0000.0001) %MON land_Tsrf_max_N              =   8.1518951846455E+00
(PID.TID 0000.0001) %MON land_Tgr1_ave_G              =  -7.2923794993404E+00
(PID.TID 0000.0001) %MON land_Tgr1_ave_S              =  -7.2249847430566E+00
(PID.TID 0000.0001) %MON land_Tgr1_ave_T              =   1.0063406385658E+01
(PID.TID 0000.0001) %MON land_Tgr1_ave_N              =  -1.8903925336708E+01
(PID.TID 0000.0001) %MON land_Tgr1_min_S              =  -3.9306842900346E+01
(PID.TID 0000.0001) %MON land_Tgr1_min_T              =  -3.2486023656901E+00
(PID.TID 0000.0001) %MON land_Tgr1_min_N              =  -5.4657180085119E+01
(PID.TID 0000.0001) %MON land_Tgr1_max_S              =   2.0191850040939E+01
(PID.TID 0000.0001) %MON land_Tgr1_max_T              =   2.0245031677863E+01
(PID.TID 0000.0001) %MON land_Tgr1_max_N              =   8.1518951846455E+00
(PID.TID 0000.0001) %MON land_Tgr2_ave_G              =   4.2032124679892E+00
(PID.TID 0000.0001) %MON land_Tgr2_ave_S              =  -1.8726071026509E+01
(PID.TID 0000.0001) %MON land_Tgr2_ave_T              =   2.2008852351365E+01
(PID.TID 0000.0001) %MON land_Tgr2_ave_N              =  -2.4875033593027E-01
(PID.TID 0000.0001) %MON land_Tgr2_min_S              =  -6.4750208752106E+01
(PID.TID 0000.0001) %MON land_Tgr2_min_T              =  -9.7035102066756E+00
(PID.TID 0000.0001) %MON land_Tgr2_min_N              =  -4.0200285225220E+01
(PID.TID 0000.0001) %MON land_Tgr2_max_S              =   2.3359827780733E+01
(PID.TID 0000.0001) %MON land_Tgr2_max_T              =   3.1350473452870E+01
(PID.TID 0000.0001) %MON land_Tgr2_max_N              =   2.9820036545456E+01
(PID.TID 0000.0001) %MON land_TotEnerg_G              =  -6.3554134948382E+21
(PID.TID 0000.0001) %MON land_TotEnerg_S              =  -5.0023701610580E+21
(PID.TID 0000.0001) %MON land_TotEnerg_T              =   7.2756278729974E+21
(PID.TID 0000.0001) %MON land_TotEnerg_N              =  -8.6286712067775E+21
(PID.TID 0000.0001) %MON land_grdW_ave_G              =   4.8673564764461E-01
(PID.TID 0000.0001) %MON land_grdW_ave_S              =   3.0850201738548E-01
(PID.TID 0000.0001) %MON land_grdW_ave_T              =   5.6412778275631E-01
(PID.TID 0000.0001) %MON land_grdW_ave_N              =   4.9287335954221E-01
(PID.TID 0000.0001) %MON land_grdW_min_S              =   2.7769737541028E-02
(PID.TID 0000.0001) %MON land_grdW_min_T              =   0.0000000000000E+00
(PID.TID 0000.0001) %MON land_grdW_min_N              =   0.0000000000000E+00
(PID.TID 0000.0001) // =======================================================
(PID.TID 0000.0001) // End MONITOR Land statistics
(PID.TID 0000.0001) // =======================================================
(PID.TID 0000.0001) // =======================================================
(PID.TID 0000.0001) // Begin MONITOR Therm.SeaIce statistics
(PID.TID 0000.0001) // =======================================================
(PID.TID 0000.0001) %MON thSI_time_sec                =   1.2600000000000E+04
(PID.TID 0000.0001) %MON thSI_Ice_Area_G              =   2.2515215043036E+11
(PID.TID 0000.0001) %MON thSI_Ice_Area_S              =   0.0000000000000E+00
(PID.TID 0000.0001) %MON thSI_Ice_Area_N              =   2.2515215043036E+11
(PID.TID 0000.0001) %MON thSI_IceH_ave_G              =   1.1490095855741E-01
(PID.TID 0000.0001) %MON thSI_IceH_ave_S              =   0.0000000000000E+00
(PID.TID 0000.0001) %MON thSI_IceH_ave_N              =   1.1490095855741E-01
(PID.TID 0000.0001) %MON thSI_IceH_max_S              =   0.0000000000000E+00
(PID.TID 0000.0001) %MON thSI_IceH_max_N              =   1.4676767990622E-01
(PID.TID 0000.0001) %MON thSI_SnwH_ave_G              =   0.0000000000000E+00
(PID.TID 0000.0001) %MON thSI_SnwH_ave_S              =   0.0000000000000E+00
(PID.TID 0000.0001) %MON thSI_SnwH_ave_N              =   0.0000000000000E+00
(PID.TID 0000.0001) %MON thSI_SnwH_max_S              =   0.0000000000000E+00
(PID.TID 0000.0001) %MON thSI_SnwH_max_N              =   0.0000000000000E+00
(PID.TID 0000.0001) %MON thSI_Tsrf_ave_G              =  -8.0755925351847E+00
(PID.TID 0000.0001) %MON thSI_Tsrf_ave_S              =   0.0000000000000E+00
(PID.TID 0000.0001) %MON thSI_Tsrf_ave_N              =  -8.0755925351847E+00
(PID.TID 0000.0001) %MON thSI_Tsrf_min_S              =   0.0000000000000E+00
(PID.TID 0000.0001) %MON thSI_Tsrf_min_N              =  -9.2889280708496E+00
(PID.TID 0000.0001) %MON thSI_Tsrf_max_S              =   0.0000000000000E+00
(PID.TID 0000.0001) %MON thSI_Tsrf_max_N              =  -2.9617018024815E+00
(PID.TID 0000.0001) %MON thSI_Tic1_ave_G              =  -6.6851544740649E+00
(PID.TID 0000.0001) %MON thSI_Tic1_ave_S              =   0.0000000000000E+00
(PID.TID 0000.0001) %MON thSI_Tic1_ave_N              =  -6.6851544740649E+00
(PID.TID 0000.0001) %MON thSI_Tic1_min_S              =   0.0000000000000E+00
(PID.TID 0000.0001) %MON thSI_Tic1_min_N              =  -6.9423551188437E+00
(PID.TID 0000.0001) %MON thSI_Tic1_max_S              =   0.0000000000000E+00
(PID.TID 0000.0001) %MON thSI_Tic1_max_N              =  -2.6154647270119E+00
(PID.TID 0000.0001) %MON thSI_Tic2_ave_G              =  -3.2210586990368E+00
(PID.TID 0000.0001) %MON thSI_Tic2_ave_S              =   0.0000000000000E+00
(PID.TID 0000.0001) %MON thSI_Tic2_ave_N              =  -3.2210586990368E+00
(PID.TID 0000.0001) %MON thSI_Tic2_min_S              =   0.0000000000000E+00
(PID.TID 0000.0001) %MON thSI_Tic2_min_N              =  -3.3300199892274E+00
(PID.TID 0000.0001) %MON thSI_Tic2_max_S              =   0.0000000000000E+00
(PID.TID 0000.0001) %MON thSI_Tic2_max_N              =  -1.9477933236985E+00
(PID.TID 0000.0001) %MON thSI_TotEnerg_G              =  -7.9883293769490E+18
(PID.TID 0000.0001) // =======================================================
(PID.TID 0000.0001) // End MONITOR Therm.SeaIce statistics
(PID.TID 0000.0001) // =======================================================
 cg2d: Sum(rhs),rhsMax =   2.32830643653870E-10  1.98474378471370E+04
(PID.TID 0000.0001)      cg2d_init_res =   1.11400795709817E+04
(PID.TID 0000.0001)      cg2d_iters(min,last) =      -1      16
(PID.TID 0000.0001)      cg2d_last_res =   6.67662376108401E-11
(PID.TID 0000.0001) // =======================================================
(PID.TID 0000.0001) // Begin MONITOR dynamic field statistics
(PID.TID 0000.0001) // =======================================================
(PID.TID 0000.0001) %MON time_tsnumber                =                    29
(PID.TID 0000.0001) %MON time_secondsf                =   1.3050000000000E+04
(PID.TID 0000.0001) %MON dynstat_eta_max              =   3.3051643427711E+03
(PID.TID 0000.0001) %MON dynstat_eta_min              =  -7.6032709912225E+02
(PID.TID 0000.0001) %MON dynstat_eta_mean             =  -3.2131515562031E-15
(PID.TID 0000.0001) %MON dynstat_eta_sd               =   4.8112903752469E+02
(PID.TID 0000.0001) %MON dynstat_eta_del2             =   4.3912749756302E+00
(PID.TID 0000.0001) %MON dynstat_uvel_max             =   5.1572714881924E+00
(PID.TID 0000.0001) %MON dynstat_uvel_min             =  -5.5332162461197E+00
(PID.TID 0000.0001) %MON dynstat_uvel_mean            =   3.2645526416654E-02
(PID.TID 0000.0001) %MON dynstat_uvel_sd              =   8.0733589388379E-01
(PID.TID 0000.0001) %MON dynstat_uvel_del2            =   1.3319547973826E-03
(PID.TID 0000.0001) %MON dynstat_vvel_max             =   5.1883375580372E+00
(PID.TID 0000.0001) %MON dynstat_vvel_min             =  -5.8051659662750E+00
(PID.TID 0000.0001) %MON dynstat_vvel_mean            =   2.4410125952652E-02
(PID.TID 0000.0001) %MON dynstat_vvel_sd              =   8.1857932075870E-01
(PID.TID 0000.0001) %MON dynstat_vvel_del2            =   1.3064212741992E-03
(PID.TID 0000.0001) %MON dynstat_wvel_max             =   2.3582294811436E-01
(PID.TID 0000.0001) %MON dynstat_wvel_min             =  -1.1567721031096E-01
(PID.TID 0000.0001) %MON dynstat_wvel_mean            =   5.7914201481457E-04
(PID.TID 0000.0001) %MON dynstat_wvel_sd              =   1.0421455567213E-02
(PID.TID 0000.0001) %MON dynstat_wvel_del2            =   1.2015817051684E-04
(PID.TID 0000.0001) %MON dynstat_theta_max            =   4.3813468290820E+02
(PID.TID 0000.0001) %MON dynstat_theta_min            =   2.8279193876168E+02
(PID.TID 0000.0001) %MON dynstat_theta_mean           =   3.3167687893149E+02
(PID.TID 0000.0001) %MON dynstat_theta_sd             =   4.7461357825056E+01
(PID.TID 0000.0001) %MON dynstat_theta_del2           =   2.1008927585587E-03
(PID.TID 0000.0001) %MON dynstat_salt_max             =   4.6992926694917E+00
(PID.TID 0000.0001) %MON dynstat_salt_min             =  -1.9955528735036E-02
(PID.TID 0000.0001) %MON dynstat_salt_mean            =   1.0386876421471E-01
(PID.TID 0000.0001) %MON dynstat_salt_sd              =   4.0519692507126E-01
(PID.TID 0000.0001) %MON dynstat_salt_del2            =   1.2001645564490E-03
(PID.TID 0000.0001) %MON advcfl_uvel_max              =   7.7256903855146E-03
(PID.TID 0000.0001) %MON advcfl_vvel_max              =   8.2993904512079E-03
(PID.TID 0000.0001) %MON advcfl_wvel_max              =   3.8589209691440E-03
(PID.TID 0000.0001) %MON advcfl_W_hf_max              =   9.3506880690580E-03
(PID.TID 0000.0001) %MON am_eta_mean                  =  -1.4045398489274E+10
(PID.TID 0000.0001) %MON am_uZo_mean                  =   1.3915497917811E+10
(PID.TID 0000.0001) %MON am_tot_mean                  =  -1.2990057146307E+08
(PID.TID 0000.0001) %MON pe_b_mean                    =  -1.2257368207196E+00
(PID.TID 0000.0001) %MON ke_max                       =   1.6803724200983E+01
(PID.TID 0000.0001) %MON ke_mean                      =   6.5782283528036E-01
(PID.TID 0000.0001) %MON ke_vol                       =   4.9523908919847E+19
(PID.TID 0000.0001) %MON vort_r_min                   =  -2.0497333196121E-05
(PID.TID 0000.0001) %MON vort_r_max                   =   1.1214873894255E-05
(PID.TID 0000.0001) %MON vort_a_mean                  =   6.7242814765308E-08
(PID.TID 0000.0001) %MON vort_a_sd                    =   8.4001352730954E-05
(PID.TID 0000.0001) %MON vort_p_mean                  =   6.8939472890985E-08
(PID.TID 0000.0001) %MON vort_p_sd                    =   9.1729773985580E-05
(PID.TID 0000.0001) %MON surfExpan_theta_mean         =  -5.7633591053657E-02
(PID.TID 0000.0001) %MON surfExpan_salt_mean          =  -1.3582193623299E-03
(PID.TID 0000.0001) %MON surfExpan_Heat_mean          =   4.5508718111358E+00
(PID.TID 0000.0001) %MON En_Budget_T2PE_mean          =  -8.8107123335355E+00
(PID.TID 0000.0001) // =======================================================
(PID.TID 0000.0001) // End MONITOR dynamic field statistics
(PID.TID 0000.0001) // =======================================================
(PID.TID 0000.0001) // =======================================================
(PID.TID 0000.0001) // Begin MONITOR Land statistics
(PID.TID 0000.0001) // =======================================================
(PID.TID 0000.0001) %MON land_time_sec                =   1.3050000000000E+04
(PID.TID 0000.0001) %MON land_SnwH_ave_G              =   1.5321985873105E-01
(PID.TID 0000.0001) %MON land_SnwH_ave_S              =   5.5903765402181E-01
(PID.TID 0000.0001) %MON land_SnwH_ave_T              =   0.0000000000000E+00
(PID.TID 0000.0001) %MON land_SnwH_ave_N              =   1.2389075416717E-01
(PID.TID 0000.0001) %MON land_SnwH_max_S              =   9.9998417900868E-01
(PID.TID 0000.0001) %MON land_SnwH_max_T              =   0.0000000000000E+00
(PID.TID 0000.0001) %MON land_SnwH_max_N              =   9.9999808531836E-01
(PID.TID 0000.0001) %MON land_Tsrf_ave_G              =  -8.5236167369996E+00
(PID.TID 0000.0001) %MON land_Tsrf_ave_S              =  -7.3573268021591E+00
(PID.TID 0000.0001) %MON land_Tsrf_ave_T              =   1.0001217116457E+01
(PID.TID 0000.0001) %MON land_Tsrf_ave_N              =  -2.1272293326841E+01
(PID.TID 0000.0001) %MON land_Tsrf_min_S              =  -3.3659923209395E+01
(PID.TID 0000.0001) %MON land_Tsrf_min_T              =  -3.1451473523960E+00
(PID.TID 0000.0001) %MON land_Tsrf_min_N              =  -5.2026180113966E+01
(PID.TID 0000.0001) %MON land_Tsrf_max_S              =   2.0140662515049E+01
(PID.TID 0000.0001) %MON land_Tsrf_max_T              =   2.0148971140984E+01
(PID.TID 0000.0001) %MON land_Tsrf_max_N              =   8.0554448574795E+00
(PID.TID 0000.0001) %MON land_Tgr1_ave_G              =  -7.3251005308466E+00
(PID.TID 0000.0001) %MON land_Tgr1_ave_S              =  -7.2403524102995E+00
(PID.TID 0000.0001) %MON land_Tgr1_ave_T              =   1.0001217116457E+01
(PID.TID 0000.0001) %MON land_Tgr1_ave_N              =  -1.8922597671359E+01
(PID.TID 0000.0001) %MON land_Tgr1_min_S              =  -3.9317674377944E+01
(PID.TID 0000.0001) %MON land_Tgr1_min_T              =  -3.1451473523960E+00
(PID.TID 0000.0001) %MON land_Tgr1_min_N              =  -5.4644756705161E+01
(PID.TID 0000.0001) %MON land_Tgr1_max_S              =   2.0140662515049E+01
(PID.TID 0000.0001) %MON land_Tgr1_max_T              =   2.0148971140984E+01
(PID.TID 0000.0001) %MON land_Tgr1_max_N              =   8.0554448574795E+00
(PID.TID 0000.0001) %MON land_Tgr2_ave_G              =   4.2030358471995E+00
(PID.TID 0000.0001) %MON land_Tgr2_ave_S              =  -1.8725878440284E+01
(PID.TID 0000.0001) %MON land_Tgr2_ave_T              =   2.2008658807377E+01
(PID.TID 0000.0001) %MON land_Tgr2_ave_N              =  -2.4903542441126E-01
(PID.TID 0000.0001) %MON land_Tgr2_min_S              =  -6.4749780115214E+01
(PID.TID 0000.0001) %MON land_Tgr2_min_T              =  -9.7034273427423E+00
(PID.TID 0000.0001) %MON land_Tgr2_min_N              =  -4.0200519804408E+01
(PID.TID 0000.0001) %MON land_Tgr2_max_S              =   2.3359758256607E+01
(PID.TID 0000.0001) %MON land_Tgr2_max_T              =   3.1350033763075E+01
(PID.TID 0000.0001) %MON land_Tgr2_max_N              =   2.9819491744480E+01
(PID.TID 0000.0001) %MON land_TotEnerg_G              =  -6.3565760138269E+21
(PID.TID 0000.0001) %MON land_TotEnerg_S              =  -5.0024013411882E+21
(PID.TID 0000.0001) %MON land_TotEnerg_T              =   7.2750576518098E+21
(PID.TID 0000.0001) %MON land_TotEnerg_N              =  -8.6292323244485E+21
(PID.TID 0000.0001) %MON land_grdW_ave_G              =   4.8672821559239E-01
(PID.TID 0000.0001) %MON land_grdW_ave_S              =   3.0849450038619E-01
(PID.TID 0000.0001) %MON land_grdW_ave_T              =   5.6410969483935E-01
(PID.TID 0000.0001) %MON land_grdW_ave_N              =   4.9287307071939E-01
(PID.TID 0000.0001) %MON land_grdW_min_S              =   2.7856302868907E-02
(PID.TID 0000.0001) %MON land_grdW_min_T              =   0.0000000000000E+00
(PID.TID 0000.0001) %MON land_grdW_min_N              =   0.0000000000000E+00
(PID.TID 0000.0001) // =======================================================
(PID.TID 0000.0001) // End MONITOR Land statistics
(PID.TID 0000.0001) // =======================================================
(PID.TID 0000.0001) // =======================================================
(PID.TID 0000.0001) // Begin MONITOR Therm.SeaIce statistics
(PID.TID 0000.0001) // =======================================================
(PID.TID 0000.0001) %MON thSI_time_sec                =   1.3050000000000E+04
(PID.TID 0000.0001) %MON thSI_Ice_Area_G              =   2.2756201358391E+11
(PID.TID 0000.0001) %MON thSI_Ice_Area_S              =   0.0000000000000E+00
(PID.TID 0000.0001) %MON thSI_Ice_Area_N              =   2.2756201358391E+11
(PID.TID 0000.0001) %MON thSI_IceH_ave_G              =   1.1420857405605E-01
(PID.TID 0000.0001) %MON thSI_IceH_ave_S              =   0.0000000000000E+00
(PID.TID 0000.0001) %MON thSI_IceH_ave_N              =   1.1420857405605E-01
(PID.TID 0000.0001) %MON thSI_IceH_max_S              =   0.0000000000000E+00
(PID.TID 0000.0001) %MON thSI_IceH_max_N              =   1.4689515999634E-01
(PID.TID 0000.0001) %MON thSI_SnwH_ave_G              =   0.0000000000000E+00
(PID.TID 0000.0001) %MON thSI_SnwH_ave_S              =   0.0000000000000E+00
(PID.TID 0000.0001) %MON thSI_SnwH_ave_N              =   0.0000000000000E+00
(PID.TID 0000.0001) %MON thSI_SnwH_max_S              =   0.0000000000000E+00
(PID.TID 0000.0001) %MON thSI_SnwH_max_N              =   0.0000000000000E+00
(PID.TID 0000.0001) %MON thSI_Tsrf_ave_G              =  -8.0767480493779E+00
(PID.TID 0000.0001) %MON thSI_Tsrf_ave_S              =   0.0000000000000E+00
(PID.TID 0000.0001) %MON thSI_Tsrf_ave_N              =  -8.0767480493779E+00
(PID.TID 0000.0001) %MON thSI_Tsrf_min_S              =   0.0000000000000E+00
(PID.TID 0000.0001) %MON thSI_Tsrf_min_N              =  -9.3475559451631E+00
(PID.TID 0000.0001) %MON thSI_Tsrf_max_S              =   0.0000000000000E+00
(PID.TID 0000.0001) %MON thSI_Tsrf_max_N              =  -3.0136815647443E+00
(PID.TID 0000.0001) %MON thSI_Tic1_ave_G              =  -6.7395170114831E+00
(PID.TID 0000.0001) %MON thSI_Tic1_ave_S              =   0.0000000000000E+00
(PID.TID 0000.0001) %MON thSI_Tic1_ave_N              =  -6.7395170114831E+00
(PID.TID 0000.0001) %MON thSI_Tic1_min_S              =   0.0000000000000E+00
(PID.TID 0000.0001) %MON thSI_Tic1_min_N              =  -7.0159085179672E+00
(PID.TID 0000.0001) %MON thSI_Tic1_max_S              =   0.0000000000000E+00
(PID.TID 0000.0001) %MON thSI_Tic1_max_N              =  -2.6617417957442E+00
(PID.TID 0000.0001) %MON thSI_Tic2_ave_G              =  -3.2478408954994E+00
(PID.TID 0000.0001) %MON thSI_Tic2_ave_S              =   0.0000000000000E+00
(PID.TID 0000.0001) %MON thSI_Tic2_ave_N              =  -3.2478408954994E+00
(PID.TID 0000.0001) %MON thSI_Tic2_min_S              =   0.0000000000000E+00
(PID.TID 0000.0001) %MON thSI_Tic2_min_N              =  -3.3576924143746E+00
(PID.TID 0000.0001) %MON thSI_Tic2_max_S              =   0.0000000000000E+00
(PID.TID 0000.0001) %MON thSI_Tic2_max_N              =  -1.9640204873138E+00
(PID.TID 0000.0001) %MON thSI_TotEnerg_G              =  -8.0273732502930E+18
(PID.TID 0000.0001) // =======================================================
(PID.TID 0000.0001) // End MONITOR Therm.SeaIce statistics
(PID.TID 0000.0001) // =======================================================
 cg2d: Sum(rhs),rhsMax =  -1.39698386192322E-09  1.92187580818824E+04
(PID.TID 0000.0001)      cg2d_init_res =   1.10006222804865E+04
(PID.TID 0000.0001)      cg2d_iters(min,last) =      -1      16
(PID.TID 0000.0001)      cg2d_last_res =   6.48038744798410E-11
(PID.TID 0000.0001) // =======================================================
(PID.TID 0000.0001) // Begin MONITOR dynamic field statistics
(PID.TID 0000.0001) // =======================================================
(PID.TID 0000.0001) %MON time_tsnumber                =                    30
(PID.TID 0000.0001) %MON time_secondsf                =   1.3500000000000E+04
(PID.TID 0000.0001) %MON dynstat_eta_max              =   3.2277012092307E+03
(PID.TID 0000.0001) %MON dynstat_eta_min              =  -7.5921938845420E+02
(PID.TID 0000.0001) %MON dynstat_eta_mean             =  -7.0689334236469E-14
(PID.TID 0000.0001) %MON dynstat_eta_sd               =   4.7105563895953E+02
(PID.TID 0000.0001) %MON dynstat_eta_del2             =   4.3955345468511E+00
(PID.TID 0000.0001) %MON dynstat_uvel_max             =   5.0021869466352E+00
(PID.TID 0000.0001) %MON dynstat_uvel_min             =  -5.3383277497139E+00
(PID.TID 0000.0001) %MON dynstat_uvel_mean            =   3.9294389998161E-02
(PID.TID 0000.0001) %MON dynstat_uvel_sd              =   7.9917391943480E-01
(PID.TID 0000.0001) %MON dynstat_uvel_del2            =   1.3693105998905E-03
(PID.TID 0000.0001) %MON dynstat_vvel_max             =   5.1236143886672E+00
(PID.TID 0000.0001) %MON dynstat_vvel_min             =  -5.6362353608340E+00
(PID.TID 0000.0001) %MON dynstat_vvel_mean            =   2.3620339645280E-02
(PID.TID 0000.0001) %MON dynstat_vvel_sd              =   8.1650679053583E-01
(PID.TID 0000.0001) %MON dynstat_vvel_del2            =   1.3422091013861E-03
(PID.TID 0000.0001) %MON dynstat_wvel_max             =   2.2208012701482E-01
(PID.TID 0000.0001) %MON dynstat_wvel_min             =  -1.0394506642818E-01
(PID.TID 0000.0001) %MON dynstat_wvel_mean            =   5.6256727521896E-04
(PID.TID 0000.0001) %MON dynstat_wvel_sd              =   1.0274234041348E-02
(PID.TID 0000.0001) %MON dynstat_wvel_del2            =   1.1951953893634E-04
(PID.TID 0000.0001) %MON dynstat_theta_max            =   4.3812950432463E+02
(PID.TID 0000.0001) %MON dynstat_theta_min            =   2.8257707507408E+02
(PID.TID 0000.0001) %MON dynstat_theta_mean           =   3.3167467659770E+02
(PID.TID 0000.0001) %MON dynstat_theta_sd             =   4.7463429693893E+01
(PID.TID 0000.0001) %MON dynstat_theta_del2           =   2.1624765236460E-03
(PID.TID 0000.0001) %MON dynstat_salt_max             =   4.7390134975685E+00
(PID.TID 0000.0001) %MON dynstat_salt_min             =  -2.2141904982255E-02
(PID.TID 0000.0001) %MON dynstat_salt_mean            =   1.0719319766943E-01
(PID.TID 0000.0001) %MON dynstat_salt_sd              =   4.1669924361368E-01
(PID.TID 0000.0001) %MON dynstat_salt_del2            =   1.2271054286079E-03
(PID.TID 0000.0001) %MON advcfl_uvel_max              =   7.4857050092788E-03
(PID.TID 0000.0001) %MON advcfl_vvel_max              =   8.0578777947466E-03
(PID.TID 0000.0001) %MON advcfl_wvel_max              =   3.6727798056319E-03
(PID.TID 0000.0001) %MON advcfl_W_hf_max              =   9.5714995075793E-03
(PID.TID 0000.0001) %MON am_eta_mean                  =  -1.4645597549286E+10
(PID.TID 0000.0001) %MON am_uZo_mean                  =   1.4506916983768E+10
(PID.TID 0000.0001) %MON am_tot_mean                  =  -1.3868056551863E+08
(PID.TID 0000.0001) %MON pe_b_mean                    =  -1.2245167599838E+00
(PID.TID 0000.0001) %MON ke_max                       =   1.5804805792751E+01
(PID.TID 0000.0001) %MON ke_mean                      =   6.4983600061949E-01
(PID.TID 0000.0001) %MON ke_vol                       =   4.9523908919847E+19
(PID.TID 0000.0001) %MON vort_r_min                   =  -2.0150315095035E-05
(PID.TID 0000.0001) %MON vort_r_max                   =   1.1754023441881E-05
(PID.TID 0000.0001) %MON vort_a_mean                  =   6.7242814765279E-08
(PID.TID 0000.0001) %MON vort_a_sd                    =   8.4003656709478E-05
(PID.TID 0000.0001) %MON vort_p_mean                  =   6.8939474486013E-08
(PID.TID 0000.0001) %MON vort_p_sd                    =   9.1712707407274E-05
(PID.TID 0000.0001) %MON surfExpan_theta_mean         =  -5.5687079092585E-02
(PID.TID 0000.0001) %MON surfExpan_salt_mean          =  -1.4494283307572E-03
(PID.TID 0000.0001) %MON surfExpan_Heat_mean          =   4.4039944175792E+00
(PID.TID 0000.0001) %MON En_Budget_T2PE_mean          =  -8.5261118145057E+00
(PID.TID 0000.0001) // =======================================================
(PID.TID 0000.0001) // End MONITOR dynamic field statistics
(PID.TID 0000.0001) // =======================================================
(PID.TID 0000.0001) // =======================================================
(PID.TID 0000.0001) // Begin MONITOR Land statistics
(PID.TID 0000.0001) // =======================================================
(PID.TID 0000.0001) %MON land_time_sec                =   1.3500000000000E+04
(PID.TID 0000.0001) %MON land_SnwH_ave_G              =   1.5321891292492E-01
(PID.TID 0000.0001) %MON land_SnwH_ave_S              =   5.5903678715321E-01
(PID.TID 0000.0001) %MON land_SnwH_ave_T              =   0.0000000000000E+00
(PID.TID 0000.0001) %MON land_SnwH_ave_N              =   1.2388915117267E-01
(PID.TID 0000.0001) %MON land_SnwH_max_S              =   9.9998361769992E-01
(PID.TID 0000.0001) %MON land_SnwH_max_T              =   0.0000000000000E+00
(PID.TID 0000.0001) %MON land_SnwH_max_N              =   9.9999802153646E-01
(PID.TID 0000.0001) %MON land_Tsrf_ave_G              =  -8.5501984272999E+00
(PID.TID 0000.0001) %MON land_Tsrf_ave_S              =  -7.3652846223001E+00
(PID.TID 0000.0001) %MON land_Tsrf_ave_T              =   9.9442550471415E+00
(PID.TID 0000.0001) %MON land_Tsrf_ave_N              =  -2.1284629363509E+01
(PID.TID 0000.0001) %MON land_Tsrf_min_S              =  -3.3634720397555E+01
(PID.TID 0000.0001) %MON land_Tsrf_min_T              =  -3.0451234258261E+00
(PID.TID 0000.0001) %MON land_Tsrf_min_N              =  -5.2021911455181E+01
(PID.TID 0000.0001) %MON land_Tsrf_max_S              =   2.0097102783665E+01
(PID.TID 0000.0001) %MON land_Tsrf_max_T              =   2.0063817257390E+01
(PID.TID 0000.0001) %MON land_Tsrf_max_N              =   7.9653686108467E+00
(PID.TID 0000.0001) %MON land_Tgr1_ave_G              =  -7.3552398575897E+00
(PID.TID 0000.0001) %MON land_Tgr1_ave_S              =  -7.2537167695817E+00
(PID.TID 0000.0001) %MON land_Tgr1_ave_T              =   9.9442550471415E+00
(PID.TID 0000.0001) %MON land_Tgr1_ave_N              =  -1.8940267256688E+01
(PID.TID 0000.0001) %MON land_Tgr1_min_S              =  -3.9328464623075E+01
(PID.TID 0000.0001) %MON land_Tgr1_min_T              =  -3.0451234258261E+00
(PID.TID 0000.0001) %MON land_Tgr1_min_N              =  -5.4632349690146E+01
(PID.TID 0000.0001) %MON land_Tgr1_max_S              =   2.0097102783665E+01
(PID.TID 0000.0001) %MON land_Tgr1_max_T              =   2.0063817257390E+01
(PID.TID 0000.0001) %MON land_Tgr1_max_N              =   7.9653686108467E+00
(PID.TID 0000.0001) %MON land_Tgr2_ave_G              =   4.2028588066296E+00
(PID.TID 0000.0001) %MON land_Tgr2_ave_S              =  -1.8725686068059E+01
(PID.TID 0000.0001) %MON land_Tgr2_ave_T              =   2.2008464485820E+01
(PID.TID 0000.0001) %MON land_Tgr2_ave_N              =  -2.4932076050616E-01
(PID.TID 0000.0001) %MON land_Tgr2_min_S              =  -6.4749351683303E+01
(PID.TID 0000.0001) %MON land_Tgr2_min_T              =  -9.7033432163380E+00
(PID.TID 0000.0001) %MON land_Tgr2_min_N              =  -4.0200754151201E+01
(PID.TID 0000.0001) %MON land_Tgr2_max_S              =   2.3359687619172E+01
(PID.TID 0000.0001) %MON land_Tgr2_max_T              =   3.1349592059062E+01
(PID.TID 0000.0001) %MON land_Tgr2_max_N              =   2.9818942818626E+01
(PID.TID 0000.0001) %MON land_TotEnerg_G              =  -6.3576810566964E+21
(PID.TID 0000.0001) %MON land_TotEnerg_S              =  -5.0024256345691E+21
(PID.TID 0000.0001) %MON land_TotEnerg_T              =   7.2745284074327E+21
(PID.TID 0000.0001) %MON land_TotEnerg_N              =  -8.6297838295601E+21
(PID.TID 0000.0001) %MON land_grdW_ave_G              =   4.8672085369519E-01
(PID.TID 0000.0001) %MON land_grdW_ave_S              =   3.0848702834705E-01
(PID.TID 0000.0001) %MON land_grdW_ave_T              =   5.6409179345383E-01
(PID.TID 0000.0001) %MON land_grdW_ave_N              =   4.9287278251191E-01
(PID.TID 0000.0001) %MON land_grdW_min_S              =   2.7942603068024E-02
(PID.TID 0000.0001) %MON land_grdW_min_T              =   0.0000000000000E+00
(PID.TID 0000.0001) %MON land_grdW_min_N              =   0.0000000000000E+00
(PID.TID 0000.0001) // =======================================================
(PID.TID 0000.0001) // End MONITOR Land statistics
(PID.TID 0000.0001) // =======================================================
(PID.TID 0000.0001) // =======================================================
(PID.TID 0000.0001) // Begin MONITOR Therm.SeaIce statistics
(PID.TID 0000.0001) // =======================================================
(PID.TID 0000.0001) %MON thSI_time_sec                =   1.3500000000000E+04
(PID.TID 0000.0001) %MON thSI_Ice_Area_G              =   2.2989923899055E+11
(PID.TID 0000.0001) %MON thSI_Ice_Area_S              =   0.0000000000000E+00
(PID.TID 0000.0001) %MON thSI_Ice_Area_N              =   2.2989923899055E+11
(PID.TID 0000.0001) %MON thSI_IceH_ave_G              =   1.1357052419177E-01
(PID.TID 0000.0001) %MON thSI_IceH_ave_S              =   0.0000000000000E+00
(PID.TID 0000.0001) %MON thSI_IceH_ave_N              =   1.1357052419177E-01
(PID.TID 0000.0001) %MON thSI_IceH_max_S              =   0.0000000000000E+00
(PID.TID 0000.0001) %MON thSI_IceH_max_N              =   1.4702523832482E-01
(PID.TID 0000.0001) %MON thSI_SnwH_ave_G              =   0.0000000000000E+00
(PID.TID 0000.0001) %MON thSI_SnwH_ave_S              =   0.0000000000000E+00
(PID.TID 0000.0001) %MON thSI_SnwH_ave_N              =   0.0000000000000E+00
(PID.TID 0000.0001) %MON thSI_SnwH_max_S              =   0.0000000000000E+00
(PID.TID 0000.0001) %MON thSI_SnwH_max_N              =   0.0000000000000E+00
(PID.TID 0000.0001) %MON thSI_Tsrf_ave_G              =  -8.0756810405546E+00
(PID.TID 0000.0001) %MON thSI_Tsrf_ave_S              =   0.0000000000000E+00
(PID.TID 0000.0001) %MON thSI_Tsrf_ave_N              =  -8.0756810405546E+00
(PID.TID 0000.0001) %MON thSI_Tsrf_min_S              =   0.0000000000000E+00
(PID.TID 0000.0001) %MON thSI_Tsrf_min_N              =  -9.4013375470790E+00
(PID.TID 0000.0001) %MON thSI_Tsrf_max_S              =   0.0000000000000E+00
(PID.TID 0000.0001) %MON thSI_Tsrf_max_N              =  -3.0469670495175E+00
(PID.TID 0000.0001) %MON thSI_Tic1_ave_G              =  -6.7882284365921E+00
(PID.TID 0000.0001) %MON thSI_Tic1_ave_S              =   0.0000000000000E+00
(PID.TID 0000.0001) %MON thSI_Tic1_ave_N              =  -6.7882284365921E+00
(PID.TID 0000.0001) %MON thSI_Tic1_min_S              =   0.0000000000000E+00
(PID.TID 0000.0001) %MON thSI_Tic1_min_N              =  -7.0837486250681E+00
(PID.TID 0000.0001) %MON thSI_Tic1_max_S              =   0.0000000000000E+00
(PID.TID 0000.0001) %MON thSI_Tic1_max_N              =  -2.6890044926877E+00
(PID.TID 0000.0001) %MON thSI_Tic2_ave_G              =  -3.2720040717741E+00
(PID.TID 0000.0001) %MON thSI_Tic2_ave_S              =   0.0000000000000E+00
(PID.TID 0000.0001) %MON thSI_Tic2_ave_N              =  -3.2720040717741E+00
(PID.TID 0000.0001) %MON thSI_Tic2_min_S              =   0.0000000000000E+00
(PID.TID 0000.0001) %MON thSI_Tic2_min_N              =  -3.3827221275067E+00
(PID.TID 0000.0001) %MON thSI_Tic2_max_S              =   0.0000000000000E+00
(PID.TID 0000.0001) %MON thSI_Tic2_max_N              =  -1.9733519391117E+00
(PID.TID 0000.0001) %MON thSI_TotEnerg_G              =  -8.0664844639250E+18
(PID.TID 0000.0001) // =======================================================
(PID.TID 0000.0001) // End MONITOR Therm.SeaIce statistics
(PID.TID 0000.0001) // =======================================================
 cg2d: Sum(rhs),rhsMax =  -2.32830643653870E-10  1.86902120884948E+04
(PID.TID 0000.0001)      cg2d_init_res =   1.08436577606301E+04
(PID.TID 0000.0001)      cg2d_iters(min,last) =      -1      16
(PID.TID 0000.0001)      cg2d_last_res =   6.31875883705048E-11
(PID.TID 0000.0001) // =======================================================
(PID.TID 0000.0001) // Begin MONITOR dynamic field statistics
(PID.TID 0000.0001) // =======================================================
(PID.TID 0000.0001) %MON time_tsnumber                =                    31
(PID.TID 0000.0001) %MON time_secondsf                =   1.3950000000000E+04
(PID.TID 0000.0001) %MON dynstat_eta_max              =   3.1514106242937E+03
(PID.TID 0000.0001) %MON dynstat_eta_min              =  -7.5874426032387E+02
(PID.TID 0000.0001) %MON dynstat_eta_mean             =   9.6394546686094E-14
(PID.TID 0000.0001) %MON dynstat_eta_sd               =   4.6173323035476E+02
(PID.TID 0000.0001) %MON dynstat_eta_del2             =   4.4023673717772E+00
(PID.TID 0000.0001) %MON dynstat_uvel_max             =   4.8500965039193E+00
(PID.TID 0000.0001) %MON dynstat_uvel_min             =  -5.1744946173936E+00
(PID.TID 0000.0001) %MON dynstat_uvel_mean            =   4.6164607358750E-02
(PID.TID 0000.0001) %MON dynstat_uvel_sd              =   7.9068176507692E-01
(PID.TID 0000.0001) %MON dynstat_uvel_del2            =   1.4091426533990E-03
(PID.TID 0000.0001) %MON dynstat_vvel_max             =   5.0244952575408E+00
(PID.TID 0000.0001) %MON dynstat_vvel_min             =  -5.4408703190656E+00
(PID.TID 0000.0001) %MON dynstat_vvel_mean            =   2.2973114244954E-02
(PID.TID 0000.0001) %MON dynstat_vvel_sd              =   8.1283574325578E-01
(PID.TID 0000.0001) %MON dynstat_vvel_del2            =   1.3781734042788E-03
(PID.TID 0000.0001) %MON dynstat_wvel_max             =   2.1503504736267E-01
(PID.TID 0000.0001) %MON dynstat_wvel_min             =  -9.1214648579179E-02
(PID.TID 0000.0001) %MON dynstat_wvel_mean            =   5.3551795473010E-04
(PID.TID 0000.0001) %MON dynstat_wvel_sd              =   1.0100935001529E-02
(PID.TID 0000.0001) %MON dynstat_wvel_del2            =   1.1860067095799E-04
(PID.TID 0000.0001) %MON dynstat_theta_max            =   4.3810402603403E+02
(PID.TID 0000.0001) %MON dynstat_theta_min            =   2.8236307025733E+02
(PID.TID 0000.0001) %MON dynstat_theta_mean           =   3.3167244701938E+02
(PID.TID 0000.0001) %MON dynstat_theta_sd             =   4.7465508906952E+01
(PID.TID 0000.0001) %MON dynstat_theta_del2           =   2.2235805950407E-03
(PID.TID 0000.0001) %MON dynstat_salt_max             =   4.7761248314725E+00
(PID.TID 0000.0001) %MON dynstat_salt_min             =  -2.4389020151737E-02
(PID.TID 0000.0001) %MON dynstat_salt_mean            =   1.1050736129241E-01
(PID.TID 0000.0001) %MON dynstat_salt_sd              =   4.2810316566064E-01
(PID.TID 0000.0001) %MON dynstat_salt_del2            =   1.2541413289196E-03
(PID.TID 0000.0001) %MON advcfl_uvel_max              =   7.2642705845549E-03
(PID.TID 0000.0001) %MON advcfl_vvel_max              =   7.7785729873437E-03
(PID.TID 0000.0001) %MON advcfl_wvel_max              =   3.5314690823664E-03
(PID.TID 0000.0001) %MON advcfl_W_hf_max              =   9.7020428959889E-03
(PID.TID 0000.0001) %MON am_eta_mean                  =  -1.5225071259732E+10
(PID.TID 0000.0001) %MON am_uZo_mean                  =   1.5077609730093E+10
(PID.TID 0000.0001) %MON am_tot_mean                  =  -1.4746152963893E+08
(PID.TID 0000.0001) %MON pe_b_mean                    =  -1.2216265442336E+00
(PID.TID 0000.0001) %MON ke_max                       =   1.5109574422421E+01
(PID.TID 0000.0001) %MON ke_mean                      =   6.4042509930845E-01
(PID.TID 0000.0001) %MON ke_vol                       =   4.9523908919847E+19
(PID.TID 0000.0001) %MON vort_r_min                   =  -1.9696697446649E-05
(PID.TID 0000.0001) %MON vort_r_max                   =   1.2315838293161E-05
(PID.TID 0000.0001) %MON vort_a_mean                  =   6.7242814765338E-08
(PID.TID 0000.0001) %MON vort_a_sd                    =   8.4005897822645E-05
(PID.TID 0000.0001) %MON vort_p_mean                  =   6.8939476078409E-08
(PID.TID 0000.0001) %MON vort_p_sd                    =   9.1696768136783E-05
(PID.TID 0000.0001) %MON surfExpan_theta_mean         =  -5.2749013294006E-02
(PID.TID 0000.0001) %MON surfExpan_salt_mean          =  -1.5343599512740E-03
(PID.TID 0000.0001) %MON surfExpan_Heat_mean          =   4.1726378419931E+00
(PID.TID 0000.0001) %MON En_Budget_T2PE_mean          =  -8.0837868890546E+00
(PID.TID 0000.0001) // =======================================================
(PID.TID 0000.0001) // End MONITOR dynamic field statistics
(PID.TID 0000.0001) // =======================================================
(PID.TID 0000.0001) // =======================================================
(PID.TID 0000.0001) // Begin MONITOR Land statistics
(PID.TID 0000.0001) // =======================================================
(PID.TID 0000.0001) %MON land_time_sec                =   1.3950000000000E+04
(PID.TID 0000.0001) %MON land_SnwH_ave_G              =   1.5321796957869E-01
(PID.TID 0000.0001) %MON land_SnwH_ave_S              =   5.5903592553879E-01
(PID.TID 0000.0001) %MON land_SnwH_ave_T              =   0.0000000000000E+00
(PID.TID 0000.0001) %MON land_SnwH_ave_N              =   1.2388755137427E-01
(PID.TID 0000.0001) %MON land_SnwH_max_S              =   9.9998305511032E-01
(PID.TID 0000.0001) %MON land_SnwH_max_T              =   0.0000000000000E+00
(PID.TID 0000.0001) %MON land_SnwH_max_N              =   9.9999795771067E-01
(PID.TID 0000.0001) %MON land_Tsrf_ave_G              =  -8.5749176392612E+00
(PID.TID 0000.0001) %MON land_Tsrf_ave_S              =  -7.3726522387537E+00
(PID.TID 0000.0001) %MON land_Tsrf_ave_T              =   9.8917973364803E+00
(PID.TID 0000.0001) %MON land_Tsrf_ave_N              =  -2.1296454373672E+01
(PID.TID 0000.0001) %MON land_Tsrf_min_S              =  -3.3607761989522E+01
(PID.TID 0000.0001) %MON land_Tsrf_min_T              =  -2.9484889418197E+00
(PID.TID 0000.0001) %MON land_Tsrf_min_N              =  -5.2017391056033E+01
(PID.TID 0000.0001) %MON land_Tsrf_max_S              =   2.0060400188968E+01
(PID.TID 0000.0001) %MON land_Tsrf_max_T              =   1.9988552850900E+01
(PID.TID 0000.0001) %MON land_Tsrf_max_N              =   7.8813869775844E+00
(PID.TID 0000.0001) %MON land_Tgr1_ave_G              =  -7.3831774575059E+00
(PID.TID 0000.0001) %MON land_Tgr1_ave_S              =  -7.2653204987409E+00
(PID.TID 0000.0001) %MON land_Tgr1_ave_T              =   9.8917973364803E+00
(PID.TID 0000.0001) %MON land_Tgr1_ave_N              =  -1.8957129655923E+01
(PID.TID 0000.0001) %MON land_Tgr1_min_S              =  -3.9339211808448E+01
(PID.TID 0000.0001) %MON land_Tgr1_min_T              =  -2.9484889418197E+00
(PID.TID 0000.0001) %MON land_Tgr1_min_N              =  -5.4619958768000E+01
(PID.TID 0000.0001) %MON land_Tgr1_max_S              =   2.0060400188968E+01
(PID.TID 0000.0001) %MON land_Tgr1_max_T              =   1.9988552850900E+01
(PID.TID 0000.0001) %MON land_Tgr1_max_N              =   7.8813869775844E+00
(PID.TID 0000.0001) %MON land_Tgr2_ave_G              =   4.2026813827736E+00
(PID.TID 0000.0001) %MON land_Tgr2_ave_S              =  -1.8725493881884E+01
(PID.TID 0000.0001) %MON land_Tgr2_ave_T              =   2.2008269460569E+01
(PID.TID 0000.0001) %MON land_Tgr2_ave_N              =  -2.4960632991042E-01
(PID.TID 0000.0001) %MON land_Tgr2_min_S              =  -6.4748923455603E+01
(PID.TID 0000.0001) %MON land_Tgr2_min_T              =  -9.7032578703094E+00
(PID.TID 0000.0001) %MON land_Tgr2_min_N              =  -4.0200988266505E+01
(PID.TID 0000.0001) %MON land_Tgr2_max_S              =   2.3359615985170E+01
(PID.TID 0000.0001) %MON land_Tgr2_max_T              =   3.1349148469965E+01
(PID.TID 0000.0001) %MON land_Tgr2_max_N              =   2.9818389927791E+01
(PID.TID 0000.0001) %MON land_TotEnerg_G              =  -6.3587337340498E+21
(PID.TID 0000.0001) %MON land_TotEnerg_S              =  -5.0024438839126E+21
(PID.TID 0000.0001) %MON land_TotEnerg_T              =   7.2740362351905E+21
(PID.TID 0000.0001) %MON land_TotEnerg_N              =  -8.6303260853277E+21
(PID.TID 0000.0001) %MON land_grdW_ave_G              =   4.8671355485033E-01
(PID.TID 0000.0001) %MON land_grdW_ave_S              =   3.0847959608084E-01
(PID.TID 0000.0001) %MON land_grdW_ave_T              =   5.6407406013195E-01
(PID.TID 0000.0001) %MON land_grdW_ave_N              =   4.9287249478500E-01
(PID.TID 0000.0001) %MON land_grdW_min_S              =   2.8028593372725E-02
(PID.TID 0000.0001) %MON land_grdW_min_T              =   0.0000000000000E+00
(PID.TID 0000.0001) %MON land_grdW_min_N              =   0.0000000000000E+00
(PID.TID 0000.0001) // =======================================================
(PID.TID 0000.0001) // End MONITOR Land statistics
(PID.TID 0000.0001) // =======================================================
(PID.TID 0000.0001) // =======================================================
(PID.TID 0000.0001) // Begin MONITOR Therm.SeaIce statistics
(PID.TID 0000.0001) // =======================================================
(PID.TID 0000.0001) %MON thSI_time_sec                =   1.3950000000000E+04
(PID.TID 0000.0001) %MON thSI_Ice_Area_G              =   2.3216772670280E+11
(PID.TID 0000.0001) %MON thSI_Ice_Area_S              =   0.0000000000000E+00
(PID.TID 0000.0001) %MON thSI_Ice_Area_N              =   2.3216772670280E+11
(PID.TID 0000.0001) %MON thSI_IceH_ave_G              =   1.1298238753050E-01
(PID.TID 0000.0001) %MON thSI_IceH_ave_S              =   0.0000000000000E+00
(PID.TID 0000.0001) %MON thSI_IceH_ave_N              =   1.1298238753050E-01
(PID.TID 0000.0001) %MON thSI_IceH_max_S              =   0.0000000000000E+00
(PID.TID 0000.0001) %MON thSI_IceH_max_N              =   1.4715770869232E-01
(PID.TID 0000.0001) %MON thSI_SnwH_ave_G              =   0.0000000000000E+00
(PID.TID 0000.0001) %MON thSI_SnwH_ave_S              =   0.0000000000000E+00
(PID.TID 0000.0001) %MON thSI_SnwH_ave_N              =   0.0000000000000E+00
(PID.TID 0000.0001) %MON thSI_SnwH_max_S              =   0.0000000000000E+00
(PID.TID 0000.0001) %MON thSI_SnwH_max_N              =   0.0000000000000E+00
(PID.TID 0000.0001) %MON thSI_Tsrf_ave_G              =  -8.0727234185159E+00
(PID.TID 0000.0001) %MON thSI_Tsrf_ave_S              =   0.0000000000000E+00
(PID.TID 0000.0001) %MON thSI_Tsrf_ave_N              =  -8.0727234185159E+00
(PID.TID 0000.0001) %MON thSI_Tsrf_min_S              =   0.0000000000000E+00
(PID.TID 0000.0001) %MON thSI_Tsrf_min_N              =  -9.4505177845798E+00
(PID.TID 0000.0001) %MON thSI_Tsrf_max_S              =   0.0000000000000E+00
(PID.TID 0000.0001) %MON thSI_Tsrf_max_N              =  -3.0740682285291E+00
(PID.TID 0000.0001) %MON thSI_Tic1_ave_G              =  -6.8316914479665E+00
(PID.TID 0000.0001) %MON thSI_Tic1_ave_S              =   0.0000000000000E+00
(PID.TID 0000.0001) %MON thSI_Tic1_ave_N              =  -6.8316914479665E+00
(PID.TID 0000.0001) %MON thSI_Tic1_min_S              =   0.0000000000000E+00
(PID.TID 0000.0001) %MON thSI_Tic1_min_N              =  -7.1461865329348E+00
(PID.TID 0000.0001) %MON thSI_Tic1_max_S              =   0.0000000000000E+00
(PID.TID 0000.0001) %MON thSI_Tic1_max_N              =  -2.7100451507985E+00
(PID.TID 0000.0001) %MON thSI_Tic2_ave_G              =  -3.2937771075913E+00
(PID.TID 0000.0001) %MON thSI_Tic2_ave_S              =   0.0000000000000E+00
(PID.TID 0000.0001) %MON thSI_Tic2_ave_N              =  -3.2937771075913E+00
(PID.TID 0000.0001) %MON thSI_Tic2_min_S              =   0.0000000000000E+00
(PID.TID 0000.0001) %MON thSI_Tic2_min_N              =  -3.4053708211207E+00
(PID.TID 0000.0001) %MON thSI_Tic2_max_S              =   0.0000000000000E+00
(PID.TID 0000.0001) %MON thSI_Tic2_max_N              =  -1.9804198985771E+00
(PID.TID 0000.0001) %MON thSI_TotEnerg_G              =  -8.1056590252882E+18
(PID.TID 0000.0001) // =======================================================
(PID.TID 0000.0001) // End MONITOR Therm.SeaIce statistics
(PID.TID 0000.0001) // =======================================================
 cg2d: Sum(rhs),rhsMax =  -5.82076609134674E-10  1.82545628191466E+04
(PID.TID 0000.0001)      cg2d_init_res =   1.06713664041910E+04
(PID.TID 0000.0001)      cg2d_iters(min,last) =      -1      16
(PID.TID 0000.0001)      cg2d_last_res =   6.17831877262912E-11
(PID.TID 0000.0001) // =======================================================
(PID.TID 0000.0001) // Begin MONITOR dynamic field statistics
(PID.TID 0000.0001) // =======================================================
(PID.TID 0000.0001) %MON time_tsnumber                =                    32
(PID.TID 0000.0001) %MON time_secondsf                =   1.4400000000000E+04
(PID.TID 0000.0001) %MON dynstat_eta_max              =   3.0797232429660E+03
(PID.TID 0000.0001) %MON dynstat_eta_min              =  -7.5894161246803E+02
(PID.TID 0000.0001) %MON dynstat_eta_mean             =  -1.9278909337219E-14
(PID.TID 0000.0001) %MON dynstat_eta_sd               =   4.5332674422277E+02
(PID.TID 0000.0001) %MON dynstat_eta_del2             =   4.4110379900109E+00
(PID.TID 0000.0001) %MON dynstat_uvel_max             =   4.6942965651590E+00
(PID.TID 0000.0001) %MON dynstat_uvel_min             =  -4.9673305435968E+00
(PID.TID 0000.0001) %MON dynstat_uvel_mean            =   5.3156537795931E-02
(PID.TID 0000.0001) %MON dynstat_uvel_sd              =   7.8203733334574E-01
(PID.TID 0000.0001) %MON dynstat_uvel_del2            =   1.4513530778629E-03
(PID.TID 0000.0001) %MON dynstat_vvel_max             =   4.8962011505120E+00
(PID.TID 0000.0001) %MON dynstat_vvel_min             =  -5.2309405582146E+00
(PID.TID 0000.0001) %MON dynstat_vvel_mean            =   2.2534355321383E-02
(PID.TID 0000.0001) %MON dynstat_vvel_sd              =   8.0765446409123E-01
(PID.TID 0000.0001) %MON dynstat_vvel_del2            =   1.4144644542349E-03
(PID.TID 0000.0001) %MON dynstat_wvel_max             =   2.0825196073375E-01
(PID.TID 0000.0001) %MON dynstat_wvel_min             =  -9.1419704212716E-02
(PID.TID 0000.0001) %MON dynstat_wvel_mean            =   5.0051219038094E-04
(PID.TID 0000.0001) %MON dynstat_wvel_sd              =   9.9107946703943E-03
(PID.TID 0000.0001) %MON dynstat_wvel_del2            =   1.1755059872943E-04
(PID.TID 0000.0001) %MON dynstat_theta_max            =   4.3806146011868E+02
(PID.TID 0000.0001) %MON dynstat_theta_min            =   2.8214975130036E+02
(PID.TID 0000.0001) %MON dynstat_theta_mean           =   3.3167019268721E+02
(PID.TID 0000.0001) %MON dynstat_theta_sd             =   4.7467595864781E+01
(PID.TID 0000.0001) %MON dynstat_theta_del2           =   2.2841446540023E-03
(PID.TID 0000.0001) %MON dynstat_salt_max             =   4.8110623286706E+00
(PID.TID 0000.0001) %MON dynstat_salt_min             =  -2.6695345477954E-02
(PID.TID 0000.0001) %MON dynstat_salt_mean            =   1.1381144722340E-01
(PID.TID 0000.0001) %MON dynstat_salt_sd              =   4.3941059269343E-01
(PID.TID 0000.0001) %MON dynstat_salt_del2            =   1.2813213769326E-03
(PID.TID 0000.0001) %MON advcfl_uvel_max              =   7.0055115704153E-03
(PID.TID 0000.0001) %MON advcfl_vvel_max              =   7.4784456416738E-03
(PID.TID 0000.0001) %MON advcfl_wvel_max              =   3.4077593574614E-03
(PID.TID 0000.0001) %MON advcfl_W_hf_max              =   9.7509252849122E-03
(PID.TID 0000.0001) %MON am_eta_mean                  =  -1.5781876082229E+10
(PID.TID 0000.0001) %MON am_uZo_mean                  =   1.5625641839421E+10
(PID.TID 0000.0001) %MON am_tot_mean                  =  -1.5623424280782E+08
(PID.TID 0000.0001) %MON pe_b_mean                    =  -1.2172919218290E+00
(PID.TID 0000.0001) %MON ke_max                       =   1.4260713407242E+01
(PID.TID 0000.0001) %MON ke_mean                      =   6.2982582099267E-01
(PID.TID 0000.0001) %MON ke_vol                       =   4.9523908919847E+19
(PID.TID 0000.0001) %MON vort_r_min                   =  -1.9169926102487E-05
(PID.TID 0000.0001) %MON vort_r_max                   =   1.2902417708958E-05
(PID.TID 0000.0001) %MON vort_a_mean                  =   6.7242814765360E-08
(PID.TID 0000.0001) %MON vort_a_sd                    =   8.4008071185992E-05
(PID.TID 0000.0001) %MON vort_p_mean                  =   6.8939477600424E-08
(PID.TID 0000.0001) %MON vort_p_sd                    =   9.1682036098871E-05
(PID.TID 0000.0001) %MON surfExpan_theta_mean         =  -4.9073534551612E-02
(PID.TID 0000.0001) %MON surfExpan_salt_mean          =  -1.6113887810601E-03
(PID.TID 0000.0001) %MON surfExpan_Heat_mean          =   3.8777763060555E+00
(PID.TID 0000.0001) %MON En_Budget_T2PE_mean          =  -7.5232229797227E+00
(PID.TID 0000.0001) // =======================================================
(PID.TID 0000.0001) // End MONITOR dynamic field statistics
(PID.TID 0000.0001) // =======================================================
(PID.TID 0000.0001) // =======================================================
(PID.TID 0000.0001) // Begin MONITOR Land statistics
(PID.TID 0000.0001) // =======================================================
(PID.TID 0000.0001) %MON land_time_sec                =   1.4400000000000E+04
(PID.TID 0000.0001) %MON land_SnwH_ave_G              =   1.5321702868728E-01
(PID.TID 0000.0001) %MON land_SnwH_ave_S              =   5.5903506941719E-01
(PID.TID 0000.0001) %MON land_SnwH_ave_T              =   0.0000000000000E+00
(PID.TID 0000.0001) %MON land_SnwH_ave_N              =   1.2388595468442E-01
(PID.TID 0000.0001) %MON land_SnwH_max_S              =   9.9998249112582E-01
(PID.TID 0000.0001) %MON land_SnwH_max_T              =   0.0000000000000E+00
(PID.TID 0000.0001) %MON land_SnwH_max_N              =   9.9999789383936E-01
(PID.TID 0000.0001) %MON land_Tsrf_ave_G              =  -8.5977444683808E+00
(PID.TID 0000.0001) %MON land_Tsrf_ave_S              =  -7.3786123219932E+00
(PID.TID 0000.0001) %MON land_Tsrf_ave_T              =   9.8433925058629E+00
(PID.TID 0000.0001) %MON land_Tsrf_ave_N              =  -2.1307672435220E+01
(PID.TID 0000.0001) %MON land_Tsrf_min_S              =  -3.3579450268289E+01
(PID.TID 0000.0001) %MON land_Tsrf_min_T              =  -2.8552034973118E+00
(PID.TID 0000.0001) %MON land_Tsrf_min_N              =  -5.2012374330409E+01
(PID.TID 0000.0001) %MON land_Tsrf_max_S              =   2.0029850745113E+01
(PID.TID 0000.0001) %MON land_Tsrf_max_T              =   1.9922244973662E+01
(PID.TID 0000.0001) %MON land_Tsrf_max_N              =   7.8032347159961E+00
(PID.TID 0000.0001) %MON land_Tgr1_ave_G              =  -7.4090724889059E+00
(PID.TID 0000.0001) %MON land_Tgr1_ave_S              =  -7.2753733429283E+00
(PID.TID 0000.0001) %MON land_Tgr1_ave_T              =   9.8433925058629E+00
(PID.TID 0000.0001) %MON land_Tgr1_ave_N              =  -1.8973132414411E+01
(PID.TID 0000.0001) %MON land_Tgr1_min_S              =  -3.9349914200339E+01
(PID.TID 0000.0001) %MON land_Tgr1_min_T              =  -2.8552034973118E+00
(PID.TID 0000.0001) %MON land_Tgr1_min_N              =  -5.4607583428942E+01
(PID.TID 0000.0001) %MON land_Tgr1_max_S              =   2.0029850745113E+01
(PID.TID 0000.0001) %MON land_Tgr1_max_T              =   1.9922244973662E+01
(PID.TID 0000.0001) %MON land_Tgr1_max_N              =   7.8032347159961E+00
(PID.TID 0000.0001) %MON land_Tgr2_ave_G              =   4.2025036287018E+00
(PID.TID 0000.0001) %MON land_Tgr2_ave_S              =  -1.8725301857149E+01
(PID.TID 0000.0001) %MON land_Tgr2_ave_T              =   2.2008073855234E+01
(PID.TID 0000.0001) %MON land_Tgr2_ave_N              =  -2.4989211742528E-01
(PID.TID 0000.0001) %MON land_Tgr2_min_S              =  -6.4748495431324E+01
(PID.TID 0000.0001) %MON land_Tgr2_min_T              =  -9.7031713469909E+00
(PID.TID 0000.0001) %MON land_Tgr2_min_N              =  -4.0201222151216E+01
(PID.TID 0000.0001) %MON land_Tgr2_max_S              =   2.3359543462116E+01
(PID.TID 0000.0001) %MON land_Tgr2_max_T              =   3.1348703118648E+01
(PID.TID 0000.0001) %MON land_Tgr2_max_N              =   2.9817833225792E+01
(PID.TID 0000.0001) %MON land_TotEnerg_G              =  -6.3597385391249E+21
(PID.TID 0000.0001) %MON land_TotEnerg_S              =  -5.0024568142729E+21
(PID.TID 0000.0001) %MON land_TotEnerg_T              =   7.2735777202227E+21
(PID.TID 0000.0001) %MON land_TotEnerg_N              =  -8.6308594450746E+21
(PID.TID 0000.0001) %MON land_grdW_ave_G              =   4.8670631284245E-01
(PID.TID 0000.0001) %MON land_grdW_ave_S              =   3.0847219914851E-01
(PID.TID 0000.0001) %MON land_grdW_ave_T              =   5.6405647872597E-01
(PID.TID 0000.0001) %MON land_grdW_ave_N              =   4.9287220737963E-01
(PID.TID 0000.0001) %MON land_grdW_min_S              =   2.8114231878956E-02
(PID.TID 0000.0001) %MON land_grdW_min_T              =   0.0000000000000E+00
(PID.TID 0000.0001) %MON land_grdW_min_N              =   0.0000000000000E+00
(PID.TID 0000.0001) // =======================================================
(PID.TID 0000.0001) // End MONITOR Land statistics
(PID.TID 0000.0001) // =======================================================
(PID.TID 0000.0001) // =======================================================
(PID.TID 0000.0001) // Begin MONITOR Therm.SeaIce statistics
(PID.TID 0000.0001) // =======================================================
(PID.TID 0000.0001) %MON thSI_time_sec                =   1.4400000000000E+04
(PID.TID 0000.0001) %MON thSI_Ice_Area_G              =   2.3437107751072E+11
(PID.TID 0000.0001) %MON thSI_Ice_Area_S              =   0.0000000000000E+00
(PID.TID 0000.0001) %MON thSI_Ice_Area_N              =   2.3437107751072E+11
(PID.TID 0000.0001) %MON thSI_IceH_ave_G              =   1.1244021795627E-01
(PID.TID 0000.0001) %MON thSI_IceH_ave_S              =   0.0000000000000E+00
(PID.TID 0000.0001) %MON thSI_IceH_ave_N              =   1.1244021795627E-01
(PID.TID 0000.0001) %MON thSI_IceH_max_S              =   0.0000000000000E+00
(PID.TID 0000.0001) %MON thSI_IceH_max_N              =   1.4729237901611E-01
(PID.TID 0000.0001) %MON thSI_SnwH_ave_G              =   0.0000000000000E+00
(PID.TID 0000.0001) %MON thSI_SnwH_ave_S              =   0.0000000000000E+00
(PID.TID 0000.0001) %MON thSI_SnwH_ave_N              =   0.0000000000000E+00
(PID.TID 0000.0001) %MON thSI_SnwH_max_S              =   0.0000000000000E+00
(PID.TID 0000.0001) %MON thSI_SnwH_max_N              =   0.0000000000000E+00
(PID.TID 0000.0001) %MON thSI_Tsrf_ave_G              =  -8.0679870780738E+00
(PID.TID 0000.0001) %MON thSI_Tsrf_ave_S              =   0.0000000000000E+00
(PID.TID 0000.0001) %MON thSI_Tsrf_ave_N              =  -8.0679870780738E+00
(PID.TID 0000.0001) %MON thSI_Tsrf_min_S              =   0.0000000000000E+00
(PID.TID 0000.0001) %MON thSI_Tsrf_min_N              =  -9.4953275314195E+00
(PID.TID 0000.0001) %MON thSI_Tsrf_max_S              =   0.0000000000000E+00
(PID.TID 0000.0001) %MON thSI_Tsrf_max_N              =  -3.0989200660439E+00
(PID.TID 0000.0001) %MON thSI_Tic1_ave_G              =  -6.8702588892107E+00
(PID.TID 0000.0001) %MON thSI_Tic1_ave_S              =   0.0000000000000E+00
(PID.TID 0000.0001) %MON thSI_Tic1_ave_N              =  -6.8702588892107E+00
(PID.TID 0000.0001) %MON thSI_Tic1_min_S              =   0.0000000000000E+00
(PID.TID 0000.0001) %MON thSI_Tic1_min_N              =  -7.2035310740569E+00
(PID.TID 0000.0001) %MON thSI_Tic1_max_S              =   0.0000000000000E+00
(PID.TID 0000.0001) %MON thSI_Tic1_max_N              =  -2.7288877431451E+00
(PID.TID 0000.0001) %MON thSI_Tic2_ave_G              =  -3.3133576650095E+00
(PID.TID 0000.0001) %MON thSI_Tic2_ave_S              =   0.0000000000000E+00
(PID.TID 0000.0001) %MON thSI_Tic2_ave_N              =  -3.3133576650095E+00
(PID.TID 0000.0001) %MON thSI_Tic2_min_S              =   0.0000000000000E+00
(PID.TID 0000.0001) %MON thSI_Tic2_min_N              =  -3.4308675392548E+00
(PID.TID 0000.0001) %MON thSI_Tic2_max_S              =   0.0000000000000E+00
(PID.TID 0000.0001) %MON thSI_Tic2_max_N              =  -1.9866922198756E+00
(PID.TID 0000.0001) %MON thSI_TotEnerg_G              =  -8.1448924911097E+18
(PID.TID 0000.0001) // =======================================================
(PID.TID 0000.0001) // End MONITOR Therm.SeaIce statistics
(PID.TID 0000.0001) // =======================================================
 cg2d: Sum(rhs),rhsMax =   1.74622982740402E-09  1.79014672088415E+04
(PID.TID 0000.0001)      cg2d_init_res =   1.04891220319233E+04
(PID.TID 0000.0001)      cg2d_iters(min,last) =      -1      16
(PID.TID 0000.0001)      cg2d_last_res =   6.03744382326046E-11
(PID.TID 0000.0001) // =======================================================
(PID.TID 0000.0001) // Begin MONITOR dynamic field statistics
(PID.TID 0000.0001) // =======================================================
(PID.TID 0000.0001) %MON time_tsnumber                =                    33
(PID.TID 0000.0001) %MON time_secondsf                =   1.4850000000000E+04
(PID.TID 0000.0001) %MON dynstat_eta_max              =   3.0259952915840E+03
(PID.TID 0000.0001) %MON dynstat_eta_min              =  -7.5981580352109E+02
(PID.TID 0000.0001) %MON dynstat_eta_mean             =  -1.9278909337219E-14
(PID.TID 0000.0001) %MON dynstat_eta_sd               =   4.4594909829470E+02
(PID.TID 0000.0001) %MON dynstat_eta_del2             =   4.4207812045729E+00
(PID.TID 0000.0001) %MON dynstat_uvel_max             =   4.5396795781342E+00
(PID.TID 0000.0001) %MON dynstat_uvel_min             =  -4.8538603051405E+00
(PID.TID 0000.0001) %MON dynstat_uvel_mean            =   6.0165346319576E-02
(PID.TID 0000.0001) %MON dynstat_uvel_sd              =   7.7336285289926E-01
(PID.TID 0000.0001) %MON dynstat_uvel_del2            =   1.4957646862100E-03
(PID.TID 0000.0001) %MON dynstat_vvel_max             =   4.7450937462030E+00
(PID.TID 0000.0001) %MON dynstat_vvel_min             =  -5.0165452635906E+00
(PID.TID 0000.0001) %MON dynstat_vvel_mean            =   2.2366055853718E-02
(PID.TID 0000.0001) %MON dynstat_vvel_sd              =   8.0114798295492E-01
(PID.TID 0000.0001) %MON dynstat_vvel_del2            =   1.4513790022371E-03
(PID.TID 0000.0001) %MON dynstat_wvel_max             =   1.9697162263087E-01
(PID.TID 0000.0001) %MON dynstat_wvel_min             =  -9.3211465608119E-02
(PID.TID 0000.0001) %MON dynstat_wvel_mean            =   4.5993771312006E-04
(PID.TID 0000.0001) %MON dynstat_wvel_sd              =   9.7147874263459E-03
(PID.TID 0000.0001) %MON dynstat_wvel_del2            =   1.1653906565602E-04
(PID.TID 0000.0001) %MON dynstat_theta_max            =   4.3805840729399E+02
(PID.TID 0000.0001) %MON dynstat_theta_min            =   2.8193692481179E+02
(PID.TID 0000.0001) %MON dynstat_theta_mean           =   3.3166791434563E+02
(PID.TID 0000.0001) %MON dynstat_theta_sd             =   4.7469692199372E+01
(PID.TID 0000.0001) %MON dynstat_theta_del2           =   2.3441093707621E-03
(PID.TID 0000.0001) %MON dynstat_salt_max             =   4.8441905024599E+00
(PID.TID 0000.0001) %MON dynstat_salt_min             =  -2.9058891259000E-02
(PID.TID 0000.0001) %MON dynstat_salt_mean            =   1.1710437771133E-01
(PID.TID 0000.0001) %MON dynstat_salt_sd              =   4.5061867566070E-01
(PID.TID 0000.0001) %MON dynstat_salt_del2            =   1.3085407706842E-03
(PID.TID 0000.0001) %MON advcfl_uvel_max              =   6.8454825444774E-03
(PID.TID 0000.0001) %MON advcfl_vvel_max              =   7.2467730281899E-03
(PID.TID 0000.0001) %MON advcfl_wvel_max              =   3.2231720066869E-03
(PID.TID 0000.0001) %MON advcfl_W_hf_max              =   9.7278513770202E-03
(PID.TID 0000.0001) %MON am_eta_mean                  =  -1.6314244165060E+10
(PID.TID 0000.0001) %MON am_uZo_mean                  =   1.6149248014904E+10
(PID.TID 0000.0001) %MON am_tot_mean                  =  -1.6499615015628E+08
(PID.TID 0000.0001) %MON pe_b_mean                    =  -1.2117729330553E+00
(PID.TID 0000.0001) %MON ke_max                       =   1.3307728436244E+01
(PID.TID 0000.0001) %MON ke_mean                      =   6.1830428732086E-01
(PID.TID 0000.0001) %MON ke_vol                       =   4.9523908919847E+19
(PID.TID 0000.0001) %MON vort_r_min                   =  -1.8598264024542E-05
(PID.TID 0000.0001) %MON vort_r_max                   =   1.3514232619737E-05
(PID.TID 0000.0001) %MON vort_a_mean                  =   6.7242814765306E-08
(PID.TID 0000.0001) %MON vort_a_sd                    =   8.4010171228446E-05
(PID.TID 0000.0001) %MON vort_p_mean                  =   6.8939478981965E-08
(PID.TID 0000.0001) %MON vort_p_sd                    =   9.1668544963623E-05
(PID.TID 0000.0001) %MON surfExpan_theta_mean         =  -4.4898589870973E-02
(PID.TID 0000.0001) %MON surfExpan_salt_mean          =  -1.6790072375907E-03
(PID.TID 0000.0001) %MON surfExpan_Heat_mean          =   3.5393613302873E+00
(PID.TID 0000.0001) %MON En_Budget_T2PE_mean          =  -6.8817148080709E+00
(PID.TID 0000.0001) // =======================================================
(PID.TID 0000.0001) // End MONITOR dynamic field statistics
(PID.TID 0000.0001) // =======================================================
(PID.TID 0000.0001) // =======================================================
(PID.TID 0000.0001) // Begin MONITOR Land statistics
(PID.TID 0000.0001) // =======================================================
(PID.TID 0000.0001) %MON land_time_sec                =   1.4850000000000E+04
(PID.TID 0000.0001) %MON land_SnwH_ave_G              =   1.5321609040728E-01
(PID.TID 0000.0001) %MON land_SnwH_ave_S              =   5.5903421869385E-01
(PID.TID 0000.0001) %MON land_SnwH_ave_T              =   0.0000000000000E+00
(PID.TID 0000.0001) %MON land_SnwH_ave_N              =   1.2388436144579E-01
(PID.TID 0000.0001) %MON land_SnwH_max_S              =   9.9998192565912E-01
(PID.TID 0000.0001) %MON land_SnwH_max_T              =   0.0000000000000E+00
(PID.TID 0000.0001) %MON land_SnwH_max_N              =   9.9999782991840E-01
(PID.TID 0000.0001) %MON land_Tsrf_ave_G              =  -8.6187708041923E+00
(PID.TID 0000.0001) %MON land_Tsrf_ave_S              =  -7.3823930320869E+00
(PID.TID 0000.0001) %MON land_Tsrf_ave_T              =   9.7983946456386E+00
(PID.TID 0000.0001) %MON land_Tsrf_ave_N              =  -2.1318285667923E+01
(PID.TID 0000.0001) %MON land_Tsrf_min_S              =  -3.3550076804762E+01
(PID.TID 0000.0001) %MON land_Tsrf_min_T              =  -2.7652267981484E+00
(PID.TID 0000.0001) %MON land_Tsrf_min_N              =  -5.2006670492611E+01
(PID.TID 0000.0001) %MON land_Tsrf_max_S              =   2.0004814218869E+01
(PID.TID 0000.0001) %MON land_Tsrf_max_T              =   1.9864038193517E+01
(PID.TID 0000.0001) %MON land_Tsrf_max_N              =   7.7306620287313E+00
(PID.TID 0000.0001) %MON land_Tgr1_ave_G              =  -7.4332111119290E+00
(PID.TID 0000.0001) %MON land_Tgr1_ave_S              =  -7.2840610682260E+00
(PID.TID 0000.0001) %MON land_Tgr1_ave_T              =   9.7983946456386E+00
(PID.TID 0000.0001) %MON land_Tgr1_ave_N              =  -1.8988354029369E+01
(PID.TID 0000.0001) %MON land_Tgr1_min_S              =  -3.9360570338876E+01
(PID.TID 0000.0001) %MON land_Tgr1_min_T              =  -2.7652267981484E+00
(PID.TID 0000.0001) %MON land_Tgr1_min_N              =  -5.4595222978260E+01
(PID.TID 0000.0001) %MON land_Tgr1_max_S              =   2.0004814218869E+01
(PID.TID 0000.0001) %MON land_Tgr1_max_T              =   1.9864038193517E+01
(PID.TID 0000.0001) %MON land_Tgr1_max_N              =   7.7306620287313E+00
(PID.TID 0000.0001) %MON land_Tgr2_ave_G              =   4.2023255518805E+00
(PID.TID 0000.0001) %MON land_Tgr2_ave_S              =  -1.8725109972371E+01
(PID.TID 0000.0001) %MON land_Tgr2_ave_T              =   2.2007877660120E+01
(PID.TID 0000.0001) %MON land_Tgr2_ave_N              =  -2.5017810867252E-01
(PID.TID 0000.0001) %MON land_Tgr2_min_S              =  -6.4748067609659E+01
(PID.TID 0000.0001) %MON land_Tgr2_min_T              =  -9.7030836882063E+00
(PID.TID 0000.0001) %MON land_Tgr2_min_N              =  -4.0201455806185E+01
(PID.TID 0000.0001) %MON land_Tgr2_max_S              =   2.3359470149450E+01
(PID.TID 0000.0001) %MON land_Tgr2_max_T              =   3.1348256122246E+01
(PID.TID 0000.0001) %MON land_Tgr2_max_N              =   2.9817272860561E+01
(PID.TID 0000.0001) %MON land_TotEnerg_G              =  -6.3606994275804E+21
(PID.TID 0000.0001) %MON land_TotEnerg_S              =  -5.0024650639077E+21
(PID.TID 0000.0001) %MON land_TotEnerg_T              =   7.2731498783947E+21
(PID.TID 0000.0001) %MON land_TotEnerg_N              =  -8.6313842420674E+21
(PID.TID 0000.0001) %MON land_grdW_ave_G              =   4.8669912202465E-01
(PID.TID 0000.0001) %MON land_grdW_ave_S              =   3.0846483366383E-01
(PID.TID 0000.0001) %MON land_grdW_ave_T              =   5.6403903469227E-01
(PID.TID 0000.0001) %MON land_grdW_ave_N              =   4.9287192001874E-01
(PID.TID 0000.0001) %MON land_grdW_min_S              =   2.8199476176238E-02
(PID.TID 0000.0001) %MON land_grdW_min_T              =   0.0000000000000E+00
(PID.TID 0000.0001) %MON land_grdW_min_N              =   0.0000000000000E+00
(PID.TID 0000.0001) // =======================================================
(PID.TID 0000.0001) // End MONITOR Land statistics
(PID.TID 0000.0001) // =======================================================
(PID.TID 0000.0001) // =======================================================
(PID.TID 0000.0001) // Begin MONITOR Therm.SeaIce statistics
(PID.TID 0000.0001) // =======================================================
(PID.TID 0000.0001) %MON thSI_time_sec                =   1.4850000000000E+04
(PID.TID 0000.0001) %MON thSI_Ice_Area_G              =   2.3764939650001E+11
(PID.TID 0000.0001) %MON thSI_Ice_Area_S              =   0.0000000000000E+00
(PID.TID 0000.0001) %MON thSI_Ice_Area_N              =   2.3764939650001E+11
(PID.TID 0000.0001) %MON thSI_IceH_ave_G              =   1.1147198190201E-01
(PID.TID 0000.0001) %MON thSI_IceH_ave_S              =   0.0000000000000E+00
(PID.TID 0000.0001) %MON thSI_IceH_ave_N              =   1.1147198190201E-01
(PID.TID 0000.0001) %MON thSI_IceH_max_S              =   0.0000000000000E+00
(PID.TID 0000.0001) %MON thSI_IceH_max_N              =   1.4742889915700E-01
(PID.TID 0000.0001) %MON thSI_SnwH_ave_G              =   0.0000000000000E+00
(PID.TID 0000.0001) %MON thSI_SnwH_ave_S              =   0.0000000000000E+00
(PID.TID 0000.0001) %MON thSI_SnwH_ave_N              =   0.0000000000000E+00
(PID.TID 0000.0001) %MON thSI_SnwH_max_S              =   0.0000000000000E+00
(PID.TID 0000.0001) %MON thSI_SnwH_max_N              =   0.0000000000000E+00
(PID.TID 0000.0001) %MON thSI_Tsrf_ave_G              =  -8.0367931077881E+00
(PID.TID 0000.0001) %MON thSI_Tsrf_ave_S              =   0.0000000000000E+00
(PID.TID 0000.0001) %MON thSI_Tsrf_ave_N              =  -8.0367931077881E+00
(PID.TID 0000.0001) %MON thSI_Tsrf_min_S              =   0.0000000000000E+00
(PID.TID 0000.0001) %MON thSI_Tsrf_min_N              =  -9.5359851948365E+00
(PID.TID 0000.0001) %MON thSI_Tsrf_max_S              =   0.0000000000000E+00
(PID.TID 0000.0001) %MON thSI_Tsrf_max_N              =  -3.1227860477180E+00
(PID.TID 0000.0001) %MON thSI_Tic1_ave_G              =  -6.9012557800248E+00
(PID.TID 0000.0001) %MON thSI_Tic1_ave_S              =   0.0000000000000E+00
(PID.TID 0000.0001) %MON thSI_Tic1_ave_N              =  -6.9012557800248E+00
(PID.TID 0000.0001) %MON thSI_Tic1_min_S              =   0.0000000000000E+00
(PID.TID 0000.0001) %MON thSI_Tic1_min_N              =  -7.2560860553101E+00
(PID.TID 0000.0001) %MON thSI_Tic1_max_S              =   0.0000000000000E+00
(PID.TID 0000.0001) %MON thSI_Tic1_max_N              =  -2.7468238607240E+00
(PID.TID 0000.0001) %MON thSI_Tic2_ave_G              =  -3.3299291653288E+00
(PID.TID 0000.0001) %MON thSI_Tic2_ave_S              =   0.0000000000000E+00
(PID.TID 0000.0001) %MON thSI_Tic2_ave_N              =  -3.3299291653288E+00
(PID.TID 0000.0001) %MON thSI_Tic2_min_S              =   0.0000000000000E+00
(PID.TID 0000.0001) %MON thSI_Tic2_min_N              =  -3.4542855564518E+00
(PID.TID 0000.0001) %MON thSI_Tic2_max_S              =   0.0000000000000E+00
(PID.TID 0000.0001) %MON thSI_Tic2_max_N              =  -1.9926474194965E+00
(PID.TID 0000.0001) %MON thSI_TotEnerg_G              =  -8.1889683757390E+18
(PID.TID 0000.0001) // =======================================================
(PID.TID 0000.0001) // End MONITOR Therm.SeaIce statistics
(PID.TID 0000.0001) // =======================================================
 cg2d: Sum(rhs),rhsMax =   1.62981450557709E-09  1.76195531342442E+04
(PID.TID 0000.0001)      cg2d_init_res =   1.03040023616590E+04
(PID.TID 0000.0001)      cg2d_iters(min,last) =      -1      16
(PID.TID 0000.0001)      cg2d_last_res =   5.85759720841657E-11
(PID.TID 0000.0001) // =======================================================
(PID.TID 0000.0001) // Begin MONITOR dynamic field statistics
(PID.TID 0000.0001) // =======================================================
(PID.TID 0000.0001) %MON time_tsnumber                =                    34
(PID.TID 0000.0001) %MON time_secondsf                =   1.5300000000000E+04
(PID.TID 0000.0001) %MON dynstat_eta_max              =   2.9749454091406E+03
(PID.TID 0000.0001) %MON dynstat_eta_min              =  -7.6134561016369E+02
(PID.TID 0000.0001) %MON dynstat_eta_mean             =  -7.7115637348875E-14
(PID.TID 0000.0001) %MON dynstat_eta_sd               =   4.3966426364739E+02
(PID.TID 0000.0001) %MON dynstat_eta_del2             =   4.4308705633436E+00
(PID.TID 0000.0001) %MON dynstat_uvel_max             =   4.3990453280274E+00
(PID.TID 0000.0001) %MON dynstat_uvel_min             =  -4.6667878345250E+00
(PID.TID 0000.0001) %MON dynstat_uvel_mean            =   6.7083879208918E-02
(PID.TID 0000.0001) %MON dynstat_uvel_sd              =   7.6472586478505E-01
(PID.TID 0000.0001) %MON dynstat_uvel_del2            =   1.5421461149449E-03
(PID.TID 0000.0001) %MON dynstat_vvel_max             =   4.5778978905018E+00
(PID.TID 0000.0001) %MON dynstat_vvel_min             =  -4.8057567938397E+00
(PID.TID 0000.0001) %MON dynstat_vvel_mean            =   2.2524697752337E-02
(PID.TID 0000.0001) %MON dynstat_vvel_sd              =   7.9357000997373E-01
(PID.TID 0000.0001) %MON dynstat_vvel_del2            =   1.4892626169711E-03
(PID.TID 0000.0001) %MON dynstat_wvel_max             =   1.8184297386970E-01
(PID.TID 0000.0001) %MON dynstat_wvel_min             =  -9.3783654736027E-02
(PID.TID 0000.0001) %MON dynstat_wvel_mean            =   4.1594638409137E-04
(PID.TID 0000.0001) %MON dynstat_wvel_sd              =   9.5253122884264E-03
(PID.TID 0000.0001) %MON dynstat_wvel_del2            =   1.1573943580077E-04
(PID.TID 0000.0001) %MON dynstat_theta_max            =   4.3807251144561E+02
(PID.TID 0000.0001) %MON dynstat_theta_min            =   2.8172440526085E+02
(PID.TID 0000.0001) %MON dynstat_theta_mean           =   3.3166561561857E+02
(PID.TID 0000.0001) %MON dynstat_theta_sd             =   4.7471797050950E+01
(PID.TID 0000.0001) %MON dynstat_theta_del2           =   2.4034707348477E-03
(PID.TID 0000.0001) %MON dynstat_salt_max             =   4.8758155036742E+00
(PID.TID 0000.0001) %MON dynstat_salt_min             =  -3.1477346342021E-02
(PID.TID 0000.0001) %MON dynstat_salt_mean            =   1.2038755117424E-01
(PID.TID 0000.0001) %MON dynstat_salt_sd              =   4.6173465980546E-01
(PID.TID 0000.0001) %MON dynstat_salt_del2            =   1.3358188844197E-03
(PID.TID 0000.0001) %MON advcfl_uvel_max              =   6.5816510265422E-03
(PID.TID 0000.0001) %MON advcfl_vvel_max              =   7.5494083799986E-03
(PID.TID 0000.0001) %MON advcfl_wvel_max              =   2.9756122996860E-03
(PID.TID 0000.0001) %MON advcfl_W_hf_max              =   9.6439408899360E-03
(PID.TID 0000.0001) %MON am_eta_mean                  =  -1.6820583141031E+10
(PID.TID 0000.0001) %MON am_uZo_mean                  =   1.6646830081546E+10
(PID.TID 0000.0001) %MON am_tot_mean                  =  -1.7375305948482E+08
(PID.TID 0000.0001) %MON pe_b_mean                    =  -1.2053408856812E+00
(PID.TID 0000.0001) %MON ke_max                       =   1.2309578353245E+01
(PID.TID 0000.0001) %MON ke_mean                      =   6.0613293753521E-01
(PID.TID 0000.0001) %MON ke_vol                       =   4.9523908919847E+19
(PID.TID 0000.0001) %MON vort_r_min                   =  -1.8005205598018E-05
(PID.TID 0000.0001) %MON vort_r_max                   =   1.4149714704963E-05
(PID.TID 0000.0001) %MON vort_a_mean                  =   6.7242814765445E-08
(PID.TID 0000.0001) %MON vort_a_sd                    =   8.4012191862777E-05
(PID.TID 0000.0001) %MON vort_p_mean                  =   6.8939480154244E-08
(PID.TID 0000.0001) %MON vort_p_sd                    =   9.1656292844659E-05
(PID.TID 0000.0001) %MON surfExpan_theta_mean         =  -4.0436227120923E-02
(PID.TID 0000.0001) %MON surfExpan_salt_mean          =  -1.7358820059840E-03
(PID.TID 0000.0001) %MON surfExpan_Heat_mean          =   3.1754089098460E+00
(PID.TID 0000.0001) %MON En_Budget_T2PE_mean          =  -6.1927412647508E+00
(PID.TID 0000.0001) // =======================================================
(PID.TID 0000.0001) // End MONITOR dynamic field statistics
(PID.TID 0000.0001) // =======================================================
(PID.TID 0000.0001) // =======================================================
(PID.TID 0000.0001) // Begin MONITOR Land statistics
(PID.TID 0000.0001) // =======================================================
(PID.TID 0000.0001) %MON land_time_sec                =   1.5300000000000E+04
(PID.TID 0000.0001) %MON land_SnwH_ave_G              =   1.5321515498118E-01
(PID.TID 0000.0001) %MON land_SnwH_ave_S              =   5.5903337300305E-01
(PID.TID 0000.0001) %MON land_SnwH_ave_T              =   0.0000000000000E+00
(PID.TID 0000.0001) %MON land_SnwH_ave_N              =   1.2388277226008E-01
(PID.TID 0000.0001) %MON land_SnwH_max_S              =   9.9998135863901E-01
(PID.TID 0000.0001) %MON land_SnwH_max_T              =   0.0000000000000E+00
(PID.TID 0000.0001) %MON land_SnwH_max_N              =   9.9999776594188E-01
(PID.TID 0000.0001) %MON land_Tsrf_ave_G              =  -8.6379346159367E+00
(PID.TID 0000.0001) %MON land_Tsrf_ave_S              =  -7.3834778137110E+00
(PID.TID 0000.0001) %MON land_Tsrf_ave_T              =   9.7568270234142E+00
(PID.TID 0000.0001) %MON land_Tsrf_ave_N              =  -2.1328353601127E+01
(PID.TID 0000.0001) %MON land_Tsrf_min_S              =  -3.3519844918086E+01
(PID.TID 0000.0001) %MON land_Tsrf_min_T              =  -2.7067498254293E+00
(PID.TID 0000.0001) %MON land_Tsrf_min_N              =  -5.2000176686386E+01
(PID.TID 0000.0001) %MON land_Tsrf_max_S              =   1.9984709895269E+01
(PID.TID 0000.0001) %MON land_Tsrf_max_T              =   1.9813148235513E+01
(PID.TID 0000.0001) %MON land_Tsrf_max_N              =   7.6634509266988E+00
(PID.TID 0000.0001) %MON land_Tgr1_ave_G              =  -7.4556685561821E+00
(PID.TID 0000.0001) %MON land_Tgr1_ave_S              =  -7.2915397033914E+00
(PID.TID 0000.0001) %MON land_Tgr1_ave_T              =   9.7568270234142E+00
(PID.TID 0000.0001) %MON land_Tgr1_ave_N              =  -1.9002909293195E+01
(PID.TID 0000.0001) %MON land_Tgr1_min_S              =  -3.9371179124956E+01
(PID.TID 0000.0001) %MON land_Tgr1_min_T              =  -2.7067498254293E+00
(PID.TID 0000.0001) %MON land_Tgr1_min_N              =  -5.4582876622228E+01
(PID.TID 0000.0001) %MON land_Tgr1_max_S              =   1.9984709895269E+01
(PID.TID 0000.0001) %MON land_Tgr1_max_T              =   1.9813148235513E+01
(PID.TID 0000.0001) %MON land_Tgr1_max_N              =   7.6634509266988E+00
(PID.TID 0000.0001) %MON land_Tgr2_ave_G              =   4.2021472038178E+00
(PID.TID 0000.0001) %MON land_Tgr2_ave_S              =  -1.8724918208645E+01
(PID.TID 0000.0001) %MON land_Tgr2_ave_T              =   2.2007680930222E+01
(PID.TID 0000.0001) %MON land_Tgr2_ave_N              =  -2.5046424389518E-01
(PID.TID 0000.0001) %MON land_Tgr2_min_S              =  -6.4747639989790E+01
(PID.TID 0000.0001) %MON land_Tgr2_min_T              =  -9.7029949352567E+00
(PID.TID 0000.0001) %MON land_Tgr2_min_N              =  -4.0201689232197E+01
(PID.TID 0000.0001) %MON land_Tgr2_max_S              =   2.3359396139633E+01
(PID.TID 0000.0001) %MON land_Tgr2_max_T              =   3.1347807592587E+01
(PID.TID 0000.0001) %MON land_Tgr2_max_N              =   2.9816708974434E+01
(PID.TID 0000.0001) %MON land_TotEnerg_G              =  -6.3616200591181E+21
(PID.TID 0000.0001) %MON land_TotEnerg_S              =  -5.0024691652874E+21
(PID.TID 0000.0001) %MON land_TotEnerg_T              =   7.2727498918464E+21
(PID.TID 0000.0001) %MON land_TotEnerg_N              =  -8.6319007856770E+21
(PID.TID 0000.0001) %MON land_grdW_ave_G              =   4.8669197736352E-01
(PID.TID 0000.0001) %MON land_grdW_ave_S              =   3.0845749653876E-01
(PID.TID 0000.0001) %MON land_grdW_ave_T              =   5.6402171501701E-01
(PID.TID 0000.0001) %MON land_grdW_ave_N              =   4.9287163236693E-01
(PID.TID 0000.0001) %MON land_grdW_min_S              =   2.8284280412211E-02
(PID.TID 0000.0001) %MON land_grdW_min_T              =   0.0000000000000E+00
(PID.TID 0000.0001) %MON land_grdW_min_N              =   0.0000000000000E+00
(PID.TID 0000.0001) // =======================================================
(PID.TID 0000.0001) // End MONITOR Land statistics
(PID.TID 0000.0001) // =======================================================
(PID.TID 0000.0001) // =======================================================
(PID.TID 0000.0001) // Begin MONITOR Therm.SeaIce statistics
(PID.TID 0000.0001) // =======================================================
(PID.TID 0000.0001) %MON thSI_time_sec                =   1.5300000000000E+04
(PID.TID 0000.0001) %MON thSI_Ice_Area_G              =   2.4077983401906E+11
(PID.TID 0000.0001) %MON thSI_Ice_Area_S              =   0.0000000000000E+00
(PID.TID 0000.0001) %MON thSI_Ice_Area_N              =   2.4077983401906E+11
(PID.TID 0000.0001) %MON thSI_IceH_ave_G              =   1.1060197313421E-01
(PID.TID 0000.0001) %MON thSI_IceH_ave_S              =   0.0000000000000E+00
(PID.TID 0000.0001) %MON thSI_IceH_ave_N              =   1.1060197313421E-01
(PID.TID 0000.0001) %MON thSI_IceH_max_S              =   0.0000000000000E+00
(PID.TID 0000.0001) %MON thSI_IceH_max_N              =   1.4756727359391E-01
(PID.TID 0000.0001) %MON thSI_SnwH_ave_G              =   0.0000000000000E+00
(PID.TID 0000.0001) %MON thSI_SnwH_ave_S              =   0.0000000000000E+00
(PID.TID 0000.0001) %MON thSI_SnwH_ave_N              =   0.0000000000000E+00
(PID.TID 0000.0001) %MON thSI_SnwH_max_S              =   0.0000000000000E+00
(PID.TID 0000.0001) %MON thSI_SnwH_max_N              =   0.0000000000000E+00
(PID.TID 0000.0001) %MON thSI_Tsrf_ave_G              =  -8.0071643076463E+00
(PID.TID 0000.0001) %MON thSI_Tsrf_ave_S              =   0.0000000000000E+00
(PID.TID 0000.0001) %MON thSI_Tsrf_ave_N              =  -8.0071643076463E+00
(PID.TID 0000.0001) %MON thSI_Tsrf_min_S              =   0.0000000000000E+00
(PID.TID 0000.0001) %MON thSI_Tsrf_min_N              =  -9.5727214743216E+00
(PID.TID 0000.0001) %MON thSI_Tsrf_max_S              =   0.0000000000000E+00
(PID.TID 0000.0001) %MON thSI_Tsrf_max_N              =  -3.1660864030120E+00
(PID.TID 0000.0001) %MON thSI_Tic1_ave_G              =  -6.9280059866149E+00
(PID.TID 0000.0001) %MON thSI_Tic1_ave_S              =   0.0000000000000E+00
(PID.TID 0000.0001) %MON thSI_Tic1_ave_N              =  -6.9280059866149E+00
(PID.TID 0000.0001) %MON thSI_Tic1_min_S              =   0.0000000000000E+00
(PID.TID 0000.0001) %MON thSI_Tic1_min_N              =  -7.3039803652120E+00
(PID.TID 0000.0001) %MON thSI_Tic1_max_S              =   0.0000000000000E+00
(PID.TID 0000.0001) %MON thSI_Tic1_max_N              =  -2.7790240718380E+00
(PID.TID 0000.0001) %MON thSI_Tic2_ave_G              =  -3.3446708431648E+00
(PID.TID 0000.0001) %MON thSI_Tic2_ave_S              =   0.0000000000000E+00
(PID.TID 0000.0001) %MON thSI_Tic2_ave_N              =  -3.3446708431648E+00
(PID.TID 0000.0001) %MON thSI_Tic2_min_S              =   0.0000000000000E+00
(PID.TID 0000.0001) %MON thSI_Tic2_min_N              =  -3.4757485868393E+00
(PID.TID 0000.0001) %MON thSI_Tic2_max_S              =   0.0000000000000E+00
(PID.TID 0000.0001) %MON thSI_Tic2_max_N              =  -2.0024319646251E+00
(PID.TID 0000.0001) %MON thSI_TotEnerg_G              =  -8.2331798717428E+18
(PID.TID 0000.0001) // =======================================================
(PID.TID 0000.0001) // End MONITOR Therm.SeaIce statistics
(PID.TID 0000.0001) // =======================================================
 cg2d: Sum(rhs),rhsMax =  -2.09547579288483E-09  1.73979368610064E+04
(PID.TID 0000.0001)      cg2d_init_res =   1.01229503977701E+04
(PID.TID 0000.0001)      cg2d_iters(min,last) =      -1      16
(PID.TID 0000.0001)      cg2d_last_res =   5.66756559308513E-11
(PID.TID 0000.0001) // =======================================================
(PID.TID 0000.0001) // Begin MONITOR dynamic field statistics
(PID.TID 0000.0001) // =======================================================
(PID.TID 0000.0001) %MON time_tsnumber                =                    35
(PID.TID 0000.0001) %MON time_secondsf                =   1.5750000000000E+04
(PID.TID 0000.0001) %MON dynstat_eta_max              =   2.9760602107527E+03
(PID.TID 0000.0001) %MON dynstat_eta_min              =  -7.6349142767270E+02
(PID.TID 0000.0001) %MON dynstat_eta_mean             =  -5.7836728011656E-14
(PID.TID 0000.0001) %MON dynstat_eta_sd               =   4.3449372514395E+02
(PID.TID 0000.0001) %MON dynstat_eta_del2             =   4.4406670426565E+00
(PID.TID 0000.0001) %MON dynstat_uvel_max             =   4.2748987534791E+00
(PID.TID 0000.0001) %MON dynstat_uvel_min             =  -4.4242420017701E+00
(PID.TID 0000.0001) %MON dynstat_uvel_mean            =   7.3805795621089E-02
(PID.TID 0000.0001) %MON dynstat_uvel_sd              =   7.5614519395848E-01
(PID.TID 0000.0001) %MON dynstat_uvel_del2            =   1.5902445745803E-03
(PID.TID 0000.0001) %MON dynstat_vvel_max             =   4.4223235880319E+00
(PID.TID 0000.0001) %MON dynstat_vvel_min             =  -4.6046047120764E+00
(PID.TID 0000.0001) %MON dynstat_vvel_mean            =   2.3059749344150E-02
(PID.TID 0000.0001) %MON dynstat_vvel_sd              =   7.8520970721985E-01
(PID.TID 0000.0001) %MON dynstat_vvel_del2            =   1.5284204145760E-03
(PID.TID 0000.0001) %MON dynstat_wvel_max             =   1.6364572988490E-01
(PID.TID 0000.0001) %MON dynstat_wvel_min             =  -9.2971288704113E-02
(PID.TID 0000.0001) %MON dynstat_wvel_mean            =   3.7038093354927E-04
(PID.TID 0000.0001) %MON dynstat_wvel_sd              =   9.3551649896574E-03
(PID.TID 0000.0001) %MON dynstat_wvel_del2            =   1.1530985685737E-04
(PID.TID 0000.0001) %MON dynstat_theta_max            =   4.3807816451514E+02
(PID.TID 0000.0001) %MON dynstat_theta_min            =   2.8151202887030E+02
(PID.TID 0000.0001) %MON dynstat_theta_mean           =   3.3166329825809E+02
(PID.TID 0000.0001) %MON dynstat_theta_sd             =   4.7473910804572E+01
(PID.TID 0000.0001) %MON dynstat_theta_del2           =   2.4622215849656E-03
(PID.TID 0000.0001) %MON dynstat_salt_max             =   4.9061953469299E+00
(PID.TID 0000.0001) %MON dynstat_salt_min             =  -3.3948122333400E-02
(PID.TID 0000.0001) %MON dynstat_salt_mean            =   1.2366109699921E-01
(PID.TID 0000.0001) %MON dynstat_salt_sd              =   4.7276063700435E-01
(PID.TID 0000.0001) %MON dynstat_salt_del2            =   1.3630880295010E-03
(PID.TID 0000.0001) %MON advcfl_uvel_max              =   6.2395844733287E-03
(PID.TID 0000.0001) %MON advcfl_vvel_max              =   7.7155921193184E-03
(PID.TID 0000.0001) %MON advcfl_wvel_max              =   2.6778392162983E-03
(PID.TID 0000.0001) %MON advcfl_W_hf_max              =   9.5369714883454E-03
(PID.TID 0000.0001) %MON am_eta_mean                  =  -1.7299475096319E+10
(PID.TID 0000.0001) %MON am_uZo_mean                  =   1.7116953904644E+10
(PID.TID 0000.0001) %MON am_tot_mean                  =  -1.8252119167462E+08
(PID.TID 0000.0001) %MON pe_b_mean                    =  -1.1982545770868E+00
(PID.TID 0000.0001) %MON ke_max                       =   1.1324258078542E+01
(PID.TID 0000.0001) %MON ke_mean                      =   5.9356657352976E-01
(PID.TID 0000.0001) %MON ke_vol                       =   4.9523908919847E+19
(PID.TID 0000.0001) %MON vort_r_min                   =  -1.7410306282995E-05
(PID.TID 0000.0001) %MON vort_r_max                   =   1.4804918229961E-05
(PID.TID 0000.0001) %MON vort_a_mean                  =   6.7242814765363E-08
(PID.TID 0000.0001) %MON vort_a_sd                    =   8.4014126669029E-05
(PID.TID 0000.0001) %MON vort_p_mean                  =   6.8939481051663E-08
(PID.TID 0000.0001) %MON vort_p_sd                    =   9.1645251445373E-05
(PID.TID 0000.0001) %MON surfExpan_theta_mean         =  -3.5866281595806E-02
(PID.TID 0000.0001) %MON surfExpan_salt_mean          =  -1.7808255691443E-03
(PID.TID 0000.0001) %MON surfExpan_Heat_mean          =   2.8013553480393E+00
(PID.TID 0000.0001) %MON En_Budget_T2PE_mean          =  -5.4848512022059E+00
(PID.TID 0000.0001) // =======================================================
(PID.TID 0000.0001) // End MONITOR dynamic field statistics
(PID.TID 0000.0001) // =======================================================
(PID.TID 0000.0001) // =======================================================
(PID.TID 0000.0001) // Begin MONITOR Land statistics
(PID.TID 0000.0001) // =======================================================
(PID.TID 0000.0001) %MON land_time_sec                =   1.5750000000000E+04
(PID.TID 0000.0001) %MON land_SnwH_ave_G              =   1.5321422167522E-01
(PID.TID 0000.0001) %MON land_SnwH_ave_S              =   5.5903253172259E-01
(PID.TID 0000.0001) %MON land_SnwH_ave_T              =   0.0000000000000E+00
(PID.TID 0000.0001) %MON land_SnwH_ave_N              =   1.2388118586732E-01
(PID.TID 0000.0001) %MON land_SnwH_max_S              =   9.9998079000338E-01
(PID.TID 0000.0001) %MON land_SnwH_max_T              =   0.0000000000000E+00
(PID.TID 0000.0001) %MON land_SnwH_max_N              =   9.9999770190312E-01
(PID.TID 0000.0001) %MON land_Tsrf_ave_G              =  -8.6553333651970E+00
(PID.TID 0000.0001) %MON land_Tsrf_ave_S              =  -7.3813512340284E+00
(PID.TID 0000.0001) %MON land_Tsrf_ave_T              =   9.7183973054311E+00
(PID.TID 0000.0001) %MON land_Tsrf_ave_N              =  -2.1338042385724E+01
(PID.TID 0000.0001) %MON land_Tsrf_min_S              =  -3.3488896723480E+01
(PID.TID 0000.0001) %MON land_Tsrf_min_T              =  -2.8169830082995E+00
(PID.TID 0000.0001) %MON land_Tsrf_min_N              =  -5.1992887308601E+01
(PID.TID 0000.0001) %MON land_Tsrf_max_S              =   1.9969009312987E+01
(PID.TID 0000.0001) %MON land_Tsrf_max_T              =   1.9768855890900E+01
(PID.TID 0000.0001) %MON land_Tsrf_max_N              =   7.6013858020856E+00
(PID.TID 0000.0001) %MON land_Tgr1_ave_G              =  -7.4766986874997E+00
(PID.TID 0000.0001) %MON land_Tgr1_ave_S              =  -7.2979404251270E+00
(PID.TID 0000.0001) %MON land_Tgr1_ave_T              =   9.7183973054311E+00
(PID.TID 0000.0001) %MON land_Tgr1_ave_N              =  -1.9017066183580E+01
(PID.TID 0000.0001) %MON land_Tgr1_min_S              =  -3.9381739839620E+01
(PID.TID 0000.0001) %MON land_Tgr1_min_T              =  -2.8169830082995E+00
(PID.TID 0000.0001) %MON land_Tgr1_min_N              =  -5.4570543562968E+01
(PID.TID 0000.0001) %MON land_Tgr1_max_S              =   1.9969009312987E+01
(PID.TID 0000.0001) %MON land_Tgr1_max_T              =   1.9768855890900E+01
(PID.TID 0000.0001) %MON land_Tgr1_max_N              =   7.6013858020856E+00
(PID.TID 0000.0001) %MON land_Tgr2_ave_G              =   4.2019686100647E+00
(PID.TID 0000.0001) %MON land_Tgr2_ave_S              =  -1.8724726548946E+01
(PID.TID 0000.0001) %MON land_Tgr2_ave_T              =   2.2007483715295E+01
(PID.TID 0000.0001) %MON land_Tgr2_ave_N              =  -2.5075051093996E-01
(PID.TID 0000.0001) %MON land_Tgr2_min_S              =  -6.4747212570887E+01
(PID.TID 0000.0001) %MON land_Tgr2_min_T              =  -9.7029051288966E+00
(PID.TID 0000.0001) %MON land_Tgr2_min_N              =  -4.0201922429950E+01
(PID.TID 0000.0001) %MON land_Tgr2_max_S              =   2.3359321519126E+01
(PID.TID 0000.0001) %MON land_Tgr2_max_T              =   3.1347357636501E+01
(PID.TID 0000.0001) %MON land_Tgr2_max_N              =   2.9816141704486E+01
(PID.TID 0000.0001) %MON land_TotEnerg_G              =  -6.3625035479571E+21
(PID.TID 0000.0001) %MON land_TotEnerg_S              =  -5.0024695641146E+21
(PID.TID 0000.0001) %MON land_TotEnerg_T              =   7.2723752804038E+21
(PID.TID 0000.0001) %MON land_TotEnerg_N              =  -8.6324092642463E+21
(PID.TID 0000.0001) %MON land_grdW_ave_G              =   4.8668487457538E-01
(PID.TID 0000.0001) %MON land_grdW_ave_S              =   3.0845018522206E-01
(PID.TID 0000.0001) %MON land_grdW_ave_T              =   5.6400450770375E-01
(PID.TID 0000.0001) %MON land_grdW_ave_N              =   4.9287134472891E-01
(PID.TID 0000.0001) %MON land_grdW_min_S              =   2.8368592768344E-02
(PID.TID 0000.0001) %MON land_grdW_min_T              =   0.0000000000000E+00
(PID.TID 0000.0001) %MON land_grdW_min_N              =   0.0000000000000E+00
(PID.TID 0000.0001) // =======================================================
(PID.TID 0000.0001) // End MONITOR Land statistics
(PID.TID 0000.0001) // =======================================================
(PID.TID 0000.0001) // =======================================================
(PID.TID 0000.0001) // Begin MONITOR Therm.SeaIce statistics
(PID.TID 0000.0001) // =======================================================
(PID.TID 0000.0001) %MON thSI_time_sec                =   1.5750000000000E+04
(PID.TID 0000.0001) %MON thSI_Ice_Area_G              =   2.4377432617329E+11
(PID.TID 0000.0001) %MON thSI_Ice_Area_S              =   0.0000000000000E+00
(PID.TID 0000.0001) %MON thSI_Ice_Area_N              =   2.4377432617329E+11
(PID.TID 0000.0001) %MON thSI_IceH_ave_G              =   1.0981911978328E-01
(PID.TID 0000.0001) %MON thSI_IceH_ave_S              =   0.0000000000000E+00
(PID.TID 0000.0001) %MON thSI_IceH_ave_N              =   1.0981911978328E-01
(PID.TID 0000.0001) %MON thSI_IceH_max_S              =   0.0000000000000E+00
(PID.TID 0000.0001) %MON thSI_IceH_max_N              =   1.4770734444243E-01
(PID.TID 0000.0001) %MON thSI_SnwH_ave_G              =   0.0000000000000E+00
(PID.TID 0000.0001) %MON thSI_SnwH_ave_S              =   0.0000000000000E+00
(PID.TID 0000.0001) %MON thSI_SnwH_ave_N              =   0.0000000000000E+00
(PID.TID 0000.0001) %MON thSI_SnwH_max_S              =   0.0000000000000E+00
(PID.TID 0000.0001) %MON thSI_SnwH_max_N              =   0.0000000000000E+00
(PID.TID 0000.0001) %MON thSI_Tsrf_ave_G              =  -7.9786744376024E+00
(PID.TID 0000.0001) %MON thSI_Tsrf_ave_S              =   0.0000000000000E+00
(PID.TID 0000.0001) %MON thSI_Tsrf_ave_N              =  -7.9786744376024E+00
(PID.TID 0000.0001) %MON thSI_Tsrf_min_S              =   0.0000000000000E+00
(PID.TID 0000.0001) %MON thSI_Tsrf_min_N              =  -9.6044284674888E+00
(PID.TID 0000.0001) %MON thSI_Tsrf_max_S              =   0.0000000000000E+00
(PID.TID 0000.0001) %MON thSI_Tsrf_max_N              =  -3.2082180518810E+00
(PID.TID 0000.0001) %MON thSI_Tic1_ave_G              =  -6.9507594195485E+00
(PID.TID 0000.0001) %MON thSI_Tic1_ave_S              =   0.0000000000000E+00
(PID.TID 0000.0001) %MON thSI_Tic1_ave_N              =  -6.9507594195485E+00
(PID.TID 0000.0001) %MON thSI_Tic1_min_S              =   0.0000000000000E+00
(PID.TID 0000.0001) %MON thSI_Tic1_min_N              =  -7.3476707717036E+00
(PID.TID 0000.0001) %MON thSI_Tic1_max_S              =   0.0000000000000E+00
(PID.TID 0000.0001) %MON thSI_Tic1_max_N              =  -2.8104307922153E+00
(PID.TID 0000.0001) %MON thSI_Tic2_ave_G              =  -3.3576491983657E+00
(PID.TID 0000.0001) %MON thSI_Tic2_ave_S              =   0.0000000000000E+00
(PID.TID 0000.0001) %MON thSI_Tic2_ave_N              =  -3.3576491983657E+00
(PID.TID 0000.0001) %MON thSI_Tic2_min_S              =   0.0000000000000E+00
(PID.TID 0000.0001) %MON thSI_Tic2_min_N              =  -3.4953896567210E+00
(PID.TID 0000.0001) %MON thSI_Tic2_max_S              =   0.0000000000000E+00
(PID.TID 0000.0001) %MON thSI_Tic2_max_N              =  -2.0127273047054E+00
(PID.TID 0000.0001) %MON thSI_TotEnerg_G              =  -8.2775132787827E+18
(PID.TID 0000.0001) // =======================================================
(PID.TID 0000.0001) // End MONITOR Therm.SeaIce statistics
(PID.TID 0000.0001) // =======================================================
 cg2d: Sum(rhs),rhsMax =   1.39698386192322E-09  1.72271515542779E+04
(PID.TID 0000.0001)      cg2d_init_res =   9.95120004244048E+03
(PID.TID 0000.0001)      cg2d_iters(min,last) =      -1      16
(PID.TID 0000.0001)      cg2d_last_res =   5.55112330128517E-11
(PID.TID 0000.0001) // =======================================================
(PID.TID 0000.0001) // Begin MONITOR dynamic field statistics
(PID.TID 0000.0001) // =======================================================
(PID.TID 0000.0001) %MON time_tsnumber                =                    36
(PID.TID 0000.0001) %MON time_secondsf                =   1.6200000000000E+04
(PID.TID 0000.0001) %MON dynstat_eta_max              =   3.0019382312184E+03
(PID.TID 0000.0001) %MON dynstat_eta_min              =  -7.8680695070541E+02
(PID.TID 0000.0001) %MON dynstat_eta_mean             =  -3.2131515562031E-14
(PID.TID 0000.0001) %MON dynstat_eta_sd               =   4.3042463991149E+02
(PID.TID 0000.0001) %MON dynstat_eta_del2             =   4.4496493404810E+00
(PID.TID 0000.0001) %MON dynstat_uvel_max             =   4.1642260311825E+00
(PID.TID 0000.0001) %MON dynstat_uvel_min             =  -4.1439770022119E+00
(PID.TID 0000.0001) %MON dynstat_uvel_mean            =   8.0228760783758E-02
(PID.TID 0000.0001) %MON dynstat_uvel_sd              =   7.4760191799899E-01
(PID.TID 0000.0001) %MON dynstat_uvel_del2            =   1.6398140522625E-03
(PID.TID 0000.0001) %MON dynstat_vvel_max             =   4.2537893485072E+00
(PID.TID 0000.0001) %MON dynstat_vvel_min             =  -4.4172392366744E+00
(PID.TID 0000.0001) %MON dynstat_vvel_mean            =   2.4012313629037E-02
(PID.TID 0000.0001) %MON dynstat_vvel_sd              =   7.7635792515133E-01
(PID.TID 0000.0001) %MON dynstat_vvel_del2            =   1.5690620832848E-03
(PID.TID 0000.0001) %MON dynstat_wvel_max             =   1.4322453821008E-01
(PID.TID 0000.0001) %MON dynstat_wvel_min             =  -9.1616985842252E-02
(PID.TID 0000.0001) %MON dynstat_wvel_mean            =   3.2474050589730E-04
(PID.TID 0000.0001) %MON dynstat_wvel_sd              =   9.2161430215941E-03
(PID.TID 0000.0001) %MON dynstat_wvel_del2            =   1.1537644457542E-04
(PID.TID 0000.0001) %MON dynstat_theta_max            =   4.3819910082098E+02
(PID.TID 0000.0001) %MON dynstat_theta_min            =   2.8129965006425E+02
(PID.TID 0000.0001) %MON dynstat_theta_mean           =   3.3166096369210E+02
(PID.TID 0000.0001) %MON dynstat_theta_sd             =   4.7476033827473E+01
(PID.TID 0000.0001) %MON dynstat_theta_del2           =   2.5203516059343E-03
(PID.TID 0000.0001) %MON dynstat_salt_max             =   4.9355482229341E+00
(PID.TID 0000.0001) %MON dynstat_salt_min             =  -3.6468387131862E-02
(PID.TID 0000.0001) %MON dynstat_salt_mean            =   1.2692512731364E-01
(PID.TID 0000.0001) %MON dynstat_salt_sd              =   4.8369741903408E-01
(PID.TID 0000.0001) %MON dynstat_salt_del2            =   1.3906429046619E-03
(PID.TID 0000.0001) %MON advcfl_uvel_max              =   6.0929964557443E-03
(PID.TID 0000.0001) %MON advcfl_vvel_max              =   7.7299562260809E-03
(PID.TID 0000.0001) %MON advcfl_wvel_max              =   2.6401753692793E-03
(PID.TID 0000.0001) %MON advcfl_W_hf_max              =   1.0051642427105E-02
(PID.TID 0000.0001) %MON am_eta_mean                  =  -1.7749674853801E+10
(PID.TID 0000.0001) %MON am_uZo_mean                  =   1.7558346825157E+10
(PID.TID 0000.0001) %MON am_tot_mean                  =  -1.9132802864413E+08
(PID.TID 0000.0001) %MON pe_b_mean                    =  -1.1907407282049E+00
(PID.TID 0000.0001) %MON ke_max                       =   1.0400599566638E+01
(PID.TID 0000.0001) %MON ke_mean                      =   5.8082315800502E-01
(PID.TID 0000.0001) %MON ke_vol                       =   4.9523908919847E+19
(PID.TID 0000.0001) %MON vort_r_min                   =  -1.6830012684771E-05
(PID.TID 0000.0001) %MON vort_r_max                   =   1.5473365000522E-05
(PID.TID 0000.0001) %MON vort_a_mean                  =   6.7242814765264E-08
(PID.TID 0000.0001) %MON vort_a_sd                    =   8.4015969083890E-05
(PID.TID 0000.0001) %MON vort_p_mean                  =   6.8939481615199E-08
(PID.TID 0000.0001) %MON vort_p_sd                    =   9.1635373386688E-05
(PID.TID 0000.0001) %MON surfExpan_theta_mean         =  -3.1333933886721E-02
(PID.TID 0000.0001) %MON surfExpan_salt_mean          =  -1.8127955564825E-03
(PID.TID 0000.0001) %MON surfExpan_Heat_mean          =   2.4297173989352E+00
(PID.TID 0000.0001) %MON En_Budget_T2PE_mean          =  -4.7811435224185E+00
(PID.TID 0000.0001) // =======================================================
(PID.TID 0000.0001) // End MONITOR dynamic field statistics
(PID.TID 0000.0001) // =======================================================
(PID.TID 0000.0001) // =======================================================
(PID.TID 0000.0001) // Begin MONITOR Land statistics
(PID.TID 0000.0001) // =======================================================
(PID.TID 0000.0001) %MON land_time_sec                =   1.6200000000000E+04
(PID.TID 0000.0001) %MON land_SnwH_ave_G              =   1.5321329327397E-01
(PID.TID 0000.0001) %MON land_SnwH_ave_S              =   5.5903169403772E-01
(PID.TID 0000.0001) %MON land_SnwH_ave_T              =   0.0000000000000E+00
(PID.TID 0000.0001) %MON land_SnwH_ave_N              =   1.2387960807919E-01
(PID.TID 0000.0001) %MON land_SnwH_max_S              =   9.9998021969348E-01
(PID.TID 0000.0001) %MON land_SnwH_max_T              =   0.0000000000000E+00
(PID.TID 0000.0001) %MON land_SnwH_max_N              =   9.9999763779571E-01
(PID.TID 0000.0001) %MON land_Tsrf_ave_G              =  -8.6709120037435E+00
(PID.TID 0000.0001) %MON land_Tsrf_ave_S              =  -7.3756582945340E+00
(PID.TID 0000.0001) %MON land_Tsrf_ave_T              =   9.6828594939457E+00
(PID.TID 0000.0001) %MON land_Tsrf_ave_N              =  -2.1347193245878E+01
(PID.TID 0000.0001) %MON land_Tsrf_min_S              =  -3.3457326653784E+01
(PID.TID 0000.0001) %MON land_Tsrf_min_T              =  -2.9242900947056E+00
(PID.TID 0000.0001) %MON land_Tsrf_min_N              =  -5.1984906031042E+01
(PID.TID 0000.0001) %MON land_Tsrf_max_S              =   1.9957225433861E+01
(PID.TID 0000.0001) %MON land_Tsrf_max_T              =   1.9730501247456E+01
(PID.TID 0000.0001) %MON land_Tsrf_max_N              =   7.5442553318042E+00
(PID.TID 0000.0001) %MON land_Tgr1_ave_G              =  -7.4963417859024E+00
(PID.TID 0000.0001) %MON land_Tgr1_ave_S              =  -7.3033833027950E+00
(PID.TID 0000.0001) %MON land_Tgr1_ave_T              =   9.6828594939457E+00
(PID.TID 0000.0001) %MON land_Tgr1_ave_N              =  -1.9030701725125E+01
(PID.TID 0000.0001) %MON land_Tgr1_min_S              =  -3.9392252107570E+01
(PID.TID 0000.0001) %MON land_Tgr1_min_T              =  -2.9242900947056E+00
(PID.TID 0000.0001) %MON land_Tgr1_min_N              =  -5.4558223104851E+01
(PID.TID 0000.0001) %MON land_Tgr1_max_S              =   1.9957225433861E+01
(PID.TID 0000.0001) %MON land_Tgr1_max_T              =   1.9730501247456E+01
(PID.TID 0000.0001) %MON land_Tgr1_max_N              =   7.5442553318042E+00
(PID.TID 0000.0001) %MON land_Tgr2_ave_G              =   4.2017897651826E+00
(PID.TID 0000.0001) %MON land_Tgr2_ave_S              =  -1.8724534978179E+01
(PID.TID 0000.0001) %MON land_Tgr2_ave_T              =   2.2007286061215E+01
(PID.TID 0000.0001) %MON land_Tgr2_ave_N              =  -2.5103695617274E-01
(PID.TID 0000.0001) %MON land_Tgr2_min_S              =  -6.4746785352113E+01
(PID.TID 0000.0001) %MON land_Tgr2_min_T              =  -9.7028143093319E+00
(PID.TID 0000.0001) %MON land_Tgr2_min_N              =  -4.0202155400052E+01
(PID.TID 0000.0001) %MON land_Tgr2_max_S              =   2.3359246369143E+01
(PID.TID 0000.0001) %MON land_Tgr2_max_T              =   3.1346906356008E+01
(PID.TID 0000.0001) %MON land_Tgr2_max_N              =   2.9815571182877E+01
(PID.TID 0000.0001) %MON land_TotEnerg_G              =  -6.3633527563078E+21
(PID.TID 0000.0001) %MON land_TotEnerg_S              =  -5.0024666694871E+21
(PID.TID 0000.0001) %MON land_TotEnerg_T              =   7.2720238347178E+21
(PID.TID 0000.0001) %MON land_TotEnerg_N              =  -8.6329099215385E+21
(PID.TID 0000.0001) %MON land_grdW_ave_G              =   4.8667780876141E-01
(PID.TID 0000.0001) %MON land_grdW_ave_S              =   3.0844289733204E-01
(PID.TID 0000.0001) %MON land_grdW_ave_T              =   5.6398740237329E-01
(PID.TID 0000.0001) %MON land_grdW_ave_N              =   4.9287105504889E-01
(PID.TID 0000.0001) %MON land_grdW_min_S              =   2.8452353860713E-02
(PID.TID 0000.0001) %MON land_grdW_min_T              =   0.0000000000000E+00
(PID.TID 0000.0001) %MON land_grdW_min_N              =   0.0000000000000E+00
(PID.TID 0000.0001) // =======================================================
(PID.TID 0000.0001) // End MONITOR Land statistics
(PID.TID 0000.0001) // =======================================================
(PID.TID 0000.0001) // =======================================================
(PID.TID 0000.0001) // Begin MONITOR Therm.SeaIce statistics
(PID.TID 0000.0001) // =======================================================
(PID.TID 0000.0001) %MON thSI_time_sec                =   1.6200000000000E+04
(PID.TID 0000.0001) %MON thSI_Ice_Area_G              =   2.4664343657410E+11
(PID.TID 0000.0001) %MON thSI_Ice_Area_S              =   0.0000000000000E+00
(PID.TID 0000.0001) %MON thSI_Ice_Area_N              =   2.4664343657410E+11
(PID.TID 0000.0001) %MON thSI_IceH_ave_G              =   1.0911400141167E-01
(PID.TID 0000.0001) %MON thSI_IceH_ave_S              =   0.0000000000000E+00
(PID.TID 0000.0001) %MON thSI_IceH_ave_N              =   1.0911400141167E-01
(PID.TID 0000.0001) %MON thSI_IceH_max_S              =   0.0000000000000E+00
(PID.TID 0000.0001) %MON thSI_IceH_max_N              =   1.4784896446391E-01
(PID.TID 0000.0001) %MON thSI_SnwH_ave_G              =   0.0000000000000E+00
(PID.TID 0000.0001) %MON thSI_SnwH_ave_S              =   0.0000000000000E+00
(PID.TID 0000.0001) %MON thSI_SnwH_ave_N              =   0.0000000000000E+00
(PID.TID 0000.0001) %MON thSI_SnwH_max_S              =   0.0000000000000E+00
(PID.TID 0000.0001) %MON thSI_SnwH_max_N              =   0.0000000000000E+00
(PID.TID 0000.0001) %MON thSI_Tsrf_ave_G              =  -7.9519943161311E+00
(PID.TID 0000.0001) %MON thSI_Tsrf_ave_S              =   0.0000000000000E+00
(PID.TID 0000.0001) %MON thSI_Tsrf_ave_N              =  -7.9519943161311E+00
(PID.TID 0000.0001) %MON thSI_Tsrf_min_S              =   0.0000000000000E+00
(PID.TID 0000.0001) %MON thSI_Tsrf_min_N              =  -9.6338108749939E+00
(PID.TID 0000.0001) %MON thSI_Tsrf_max_S              =   0.0000000000000E+00
(PID.TID 0000.0001) %MON thSI_Tsrf_max_N              =  -3.2500708532465E+00
(PID.TID 0000.0001) %MON thSI_Tic1_ave_G              =  -6.9699527988041E+00
(PID.TID 0000.0001) %MON thSI_Tic1_ave_S              =   0.0000000000000E+00
(PID.TID 0000.0001) %MON thSI_Tic1_ave_N              =  -6.9699527988041E+00
(PID.TID 0000.0001) %MON thSI_Tic1_min_S              =   0.0000000000000E+00
(PID.TID 0000.0001) %MON thSI_Tic1_min_N              =  -7.3874242762624E+00
(PID.TID 0000.0001) %MON thSI_Tic1_max_S              =   0.0000000000000E+00
(PID.TID 0000.0001) %MON thSI_Tic1_max_N              =  -2.8415626332375E+00
(PID.TID 0000.0001) %MON thSI_Tic2_ave_G              =  -3.3690340430117E+00
(PID.TID 0000.0001) %MON thSI_Tic2_ave_S              =   0.0000000000000E+00
(PID.TID 0000.0001) %MON thSI_Tic2_ave_N              =  -3.3690340430117E+00
(PID.TID 0000.0001) %MON thSI_Tic2_min_S              =   0.0000000000000E+00
(PID.TID 0000.0001) %MON thSI_Tic2_min_N              =  -3.5133354723547E+00
(PID.TID 0000.0001) %MON thSI_Tic2_max_S              =   0.0000000000000E+00
(PID.TID 0000.0001) %MON thSI_Tic2_max_N              =  -2.0229600949988E+00
(PID.TID 0000.0001) %MON thSI_TotEnerg_G              =  -8.3219632359811E+18
(PID.TID 0000.0001) // =======================================================
(PID.TID 0000.0001) // End MONITOR Therm.SeaIce statistics
(PID.TID 0000.0001) // =======================================================
 cg2d: Sum(rhs),rhsMax =   1.39698386192322E-09  1.70995407738859E+04
(PID.TID 0000.0001)      cg2d_init_res =   9.79141351537401E+03
(PID.TID 0000.0001)      cg2d_iters(min,last) =      -1      16
(PID.TID 0000.0001)      cg2d_last_res =   5.41929599062346E-11
(PID.TID 0000.0001) // =======================================================
(PID.TID 0000.0001) // Begin MONITOR dynamic field statistics
(PID.TID 0000.0001) // =======================================================
(PID.TID 0000.0001) %MON time_tsnumber                =                    37
(PID.TID 0000.0001) %MON time_secondsf                =   1.6650000000000E+04
(PID.TID 0000.0001) %MON dynstat_eta_max              =   3.0259105472696E+03
(PID.TID 0000.0001) %MON dynstat_eta_min              =  -8.5126853512285E+02
(PID.TID 0000.0001) %MON dynstat_eta_mean             =   3.2131515562031E-14
(PID.TID 0000.0001) %MON dynstat_eta_sd               =   4.2741804500915E+02
(PID.TID 0000.0001) %MON dynstat_eta_del2             =   4.4574251103699E+00
(PID.TID 0000.0001) %MON dynstat_uvel_max             =   4.1891042255185E+00
(PID.TID 0000.0001) %MON dynstat_uvel_min             =  -3.8422960616472E+00
(PID.TID 0000.0001) %MON dynstat_uvel_mean            =   8.6257537683958E-02
(PID.TID 0000.0001) %MON dynstat_uvel_sd              =   7.3905488206738E-01
(PID.TID 0000.0001) %MON dynstat_uvel_del2            =   1.6906410217079E-03
(PID.TID 0000.0001) %MON dynstat_vvel_max             =   4.0768221366711E+00
(PID.TID 0000.0001) %MON dynstat_vvel_min             =  -4.2660821763157E+00
(PID.TID 0000.0001) %MON dynstat_vvel_mean            =   2.5413911821452E-02
(PID.TID 0000.0001) %MON dynstat_vvel_sd              =   7.6727713077863E-01
(PID.TID 0000.0001) %MON dynstat_vvel_del2            =   1.6112869423078E-03
(PID.TID 0000.0001) %MON dynstat_wvel_max             =   1.2142374599904E-01
(PID.TID 0000.0001) %MON dynstat_wvel_min             =  -9.5289623641146E-02
(PID.TID 0000.0001) %MON dynstat_wvel_mean            =   2.8017781931706E-04
(PID.TID 0000.0001) %MON dynstat_wvel_sd              =   9.1177149948267E-03
(PID.TID 0000.0001) %MON dynstat_wvel_del2            =   1.1602194452294E-04
(PID.TID 0000.0001) %MON dynstat_theta_max            =   4.3830292565845E+02
(PID.TID 0000.0001) %MON dynstat_theta_min            =   2.8108719363350E+02
(PID.TID 0000.0001) %MON dynstat_theta_mean           =   3.3165861270777E+02
(PID.TID 0000.0001) %MON dynstat_theta_sd             =   4.7478166749366E+01
(PID.TID 0000.0001) %MON dynstat_theta_del2           =   2.5777661507496E-03
(PID.TID 0000.0001) %MON dynstat_salt_max             =   4.9640592986809E+00
(PID.TID 0000.0001) %MON dynstat_salt_min             =  -3.9035241485122E-02
(PID.TID 0000.0001) %MON dynstat_salt_mean            =   1.3017972787973E-01
(PID.TID 0000.0001) %MON dynstat_salt_sd              =   4.9454623122287E-01
(PID.TID 0000.0001) %MON dynstat_salt_del2            =   1.4182985830975E-03
(PID.TID 0000.0001) %MON advcfl_uvel_max              =   6.2958514860927E-03
(PID.TID 0000.0001) %MON advcfl_vvel_max              =   7.5836111928861E-03
(PID.TID 0000.0001) %MON advcfl_wvel_max              =   2.7428689750999E-03
(PID.TID 0000.0001) %MON advcfl_W_hf_max              =   1.0569113161754E-02
(PID.TID 0000.0001) %MON am_eta_mean                  =  -1.8170107635284E+10
(PID.TID 0000.0001) %MON am_uZo_mean                  =   1.7969894745411E+10
(PID.TID 0000.0001) %MON am_tot_mean                  =  -2.0021288987235E+08
(PID.TID 0000.0001) %MON pe_b_mean                    =  -1.1829819663568E+00
(PID.TID 0000.0001) %MON ke_max                       =   9.5736019716503E+00
(PID.TID 0000.0001) %MON ke_mean                      =   5.6807272554393E-01
(PID.TID 0000.0001) %MON ke_vol                       =   4.9523908919847E+19
(PID.TID 0000.0001) %MON vort_r_min                   =  -1.6278268750620E-05
(PID.TID 0000.0001) %MON vort_r_max                   =   1.6146072600942E-05
(PID.TID 0000.0001) %MON vort_a_mean                  =   6.7242814765316E-08
(PID.TID 0000.0001) %MON vort_a_sd                    =   8.4017712589062E-05
(PID.TID 0000.0001) %MON vort_p_mean                  =   6.8939481793586E-08
(PID.TID 0000.0001) %MON vort_p_sd                    =   9.1626598052698E-05
(PID.TID 0000.0001) %MON surfExpan_theta_mean         =  -2.6950029379747E-02
(PID.TID 0000.0001) %MON surfExpan_salt_mean          =  -1.8308829327441E-03
(PID.TID 0000.0001) %MON surfExpan_Heat_mean          =   2.0700322846173E+00
(PID.TID 0000.0001) %MON En_Budget_T2PE_mean          =  -4.0992334881513E+00
(PID.TID 0000.0001) // =======================================================
(PID.TID 0000.0001) // End MONITOR dynamic field statistics
(PID.TID 0000.0001) // =======================================================
(PID.TID 0000.0001) // =======================================================
(PID.TID 0000.0001) // Begin MONITOR Land statistics
(PID.TID 0000.0001) // =======================================================
(PID.TID 0000.0001) %MON land_time_sec                =   1.6650000000000E+04
(PID.TID 0000.0001) %MON land_SnwH_ave_G              =   1.5321236951764E-01
(PID.TID 0000.0001) %MON land_SnwH_ave_S              =   5.5903085906370E-01
(PID.TID 0000.0001) %MON land_SnwH_ave_T              =   0.0000000000000E+00
(PID.TID 0000.0001) %MON land_SnwH_ave_N              =   1.2387803866511E-01
(PID.TID 0000.0001) %MON land_SnwH_max_S              =   9.9997964764699E-01
(PID.TID 0000.0001) %MON land_SnwH_max_T              =   0.0000000000000E+00
(PID.TID 0000.0001) %MON land_SnwH_max_N              =   9.9999757361494E-01
(PID.TID 0000.0001) %MON land_Tsrf_ave_G              =  -8.6846291273997E+00
(PID.TID 0000.0001) %MON land_Tsrf_ave_S              =  -7.3663904322749E+00
(PID.TID 0000.0001) %MON land_Tsrf_ave_T              =   9.6502388176504E+00
(PID.TID 0000.0001) %MON land_Tsrf_ave_N              =  -2.1355743322407E+01
(PID.TID 0000.0001) %MON land_Tsrf_min_S              =  -3.3425163925576E+01
(PID.TID 0000.0001) %MON land_Tsrf_min_T              =  -3.0287499316975E+00
(PID.TID 0000.0001) %MON land_Tsrf_min_N              =  -5.1976445481433E+01
(PID.TID 0000.0001) %MON land_Tsrf_max_S              =   1.9948899141367E+01
(PID.TID 0000.0001) %MON land_Tsrf_max_T              =   1.9697478510120E+01
(PID.TID 0000.0001) %MON land_Tsrf_max_N              =   7.4918510715745E+00
(PID.TID 0000.0001) %MON land_Tgr1_ave_G              =  -7.5146002013302E+00
(PID.TID 0000.0001) %MON land_Tgr1_ave_S              =  -7.3079674130063E+00
(PID.TID 0000.0001) %MON land_Tgr1_ave_T              =   9.6502388176504E+00
(PID.TID 0000.0001) %MON land_Tgr1_ave_N              =  -1.9043805306425E+01
(PID.TID 0000.0001) %MON land_Tgr1_min_S              =  -3.9402715815286E+01
(PID.TID 0000.0001) %MON land_Tgr1_min_T              =  -3.0287499316975E+00
(PID.TID 0000.0001) %MON land_Tgr1_min_N              =  -5.4545914760424E+01
(PID.TID 0000.0001) %MON land_Tgr1_max_S              =   1.9948899141367E+01
(PID.TID 0000.0001) %MON land_Tgr1_max_T              =   1.9697478510120E+01
(PID.TID 0000.0001) %MON land_Tgr1_max_N              =   7.4918510715745E+00
(PID.TID 0000.0001) %MON land_Tgr2_ave_G              =   4.2016107128466E+00
(PID.TID 0000.0001) %MON land_Tgr2_ave_S              =  -1.8724343482841E+01
(PID.TID 0000.0001) %MON land_Tgr2_ave_T              =   2.2007088015712E+01
(PID.TID 0000.0001) %MON land_Tgr2_ave_N              =  -2.5132352883764E-01
(PID.TID 0000.0001) %MON land_Tgr2_min_S              =  -6.4746358332621E+01
(PID.TID 0000.0001) %MON land_Tgr2_min_T              =  -9.7027225161435E+00
(PID.TID 0000.0001) %MON land_Tgr2_min_N              =  -4.0202388143024E+01
(PID.TID 0000.0001) %MON land_Tgr2_max_S              =   2.3359170766104E+01
(PID.TID 0000.0001) %MON land_Tgr2_max_T              =   3.1346453849049E+01
(PID.TID 0000.0001) %MON land_Tgr2_max_N              =   2.9814997537219E+01
(PID.TID 0000.0001) %MON land_TotEnerg_G              =  -6.3641702648774E+21
(PID.TID 0000.0001) %MON land_TotEnerg_S              =  -5.0024608188960E+21
(PID.TID 0000.0001) %MON land_TotEnerg_T              =   7.2716935819707E+21
(PID.TID 0000.0001) %MON land_TotEnerg_N              =  -8.6334030279521E+21
(PID.TID 0000.0001) %MON land_grdW_ave_G              =   4.8667077645998E-01
(PID.TID 0000.0001) %MON land_grdW_ave_S              =   3.0843563085139E-01
(PID.TID 0000.0001) %MON land_grdW_ave_T              =   5.6397038977613E-01
(PID.TID 0000.0001) %MON land_grdW_ave_N              =   4.9287076326176E-01
(PID.TID 0000.0001) %MON land_grdW_min_S              =   2.8535495971600E-02
(PID.TID 0000.0001) %MON land_grdW_min_T              =   0.0000000000000E+00
(PID.TID 0000.0001) %MON land_grdW_min_N              =   0.0000000000000E+00
(PID.TID 0000.0001) // =======================================================
(PID.TID 0000.0001) // End MONITOR Land statistics
(PID.TID 0000.0001) // =======================================================
(PID.TID 0000.0001) // =======================================================
(PID.TID 0000.0001) // Begin MONITOR Therm.SeaIce statistics
(PID.TID 0000.0001) // =======================================================
(PID.TID 0000.0001) %MON thSI_time_sec                =   1.6650000000000E+04
(PID.TID 0000.0001) %MON thSI_Ice_Area_G              =   2.4939656838173E+11
(PID.TID 0000.0001) %MON thSI_Ice_Area_S              =   0.0000000000000E+00
(PID.TID 0000.0001) %MON thSI_Ice_Area_N              =   2.4939656838173E+11
(PID.TID 0000.0001) %MON thSI_IceH_ave_G              =   1.0847853307697E-01
(PID.TID 0000.0001) %MON thSI_IceH_ave_S              =   0.0000000000000E+00
(PID.TID 0000.0001) %MON thSI_IceH_ave_N              =   1.0847853307697E-01
(PID.TID 0000.0001) %MON thSI_IceH_max_S              =   0.0000000000000E+00
(PID.TID 0000.0001) %MON thSI_IceH_max_N              =   1.4799199585811E-01
(PID.TID 0000.0001) %MON thSI_SnwH_ave_G              =   0.0000000000000E+00
(PID.TID 0000.0001) %MON thSI_SnwH_ave_S              =   0.0000000000000E+00
(PID.TID 0000.0001) %MON thSI_SnwH_ave_N              =   0.0000000000000E+00
(PID.TID 0000.0001) %MON thSI_SnwH_max_S              =   0.0000000000000E+00
(PID.TID 0000.0001) %MON thSI_SnwH_max_N              =   0.0000000000000E+00
(PID.TID 0000.0001) %MON thSI_Tsrf_ave_G              =  -7.9264777924786E+00
(PID.TID 0000.0001) %MON thSI_Tsrf_ave_S              =   0.0000000000000E+00
(PID.TID 0000.0001) %MON thSI_Tsrf_ave_N              =  -7.9264777924786E+00
(PID.TID 0000.0001) %MON thSI_Tsrf_min_S              =   0.0000000000000E+00
(PID.TID 0000.0001) %MON thSI_Tsrf_min_N              =  -9.6599214450230E+00
(PID.TID 0000.0001) %MON thSI_Tsrf_max_S              =   0.0000000000000E+00
(PID.TID 0000.0001) %MON thSI_Tsrf_max_N              =  -3.2913180205293E+00
(PID.TID 0000.0001) %MON thSI_Tic1_ave_G              =  -6.9858700193097E+00
(PID.TID 0000.0001) %MON thSI_Tic1_ave_S              =   0.0000000000000E+00
(PID.TID 0000.0001) %MON thSI_Tic1_ave_N              =  -6.9858700193097E+00
(PID.TID 0000.0001) %MON thSI_Tic1_min_S              =   0.0000000000000E+00
(PID.TID 0000.0001) %MON thSI_Tic1_min_N              =  -7.4234933918812E+00
(PID.TID 0000.0001) %MON thSI_Tic1_max_S              =   0.0000000000000E+00
(PID.TID 0000.0001) %MON thSI_Tic1_max_N              =  -2.8722627678995E+00
(PID.TID 0000.0001) %MON thSI_Tic2_ave_G              =  -3.3789606822482E+00
(PID.TID 0000.0001) %MON thSI_Tic2_ave_S              =   0.0000000000000E+00
(PID.TID 0000.0001) %MON thSI_Tic2_ave_N              =  -3.3789606822482E+00
(PID.TID 0000.0001) %MON thSI_Tic2_min_S              =   0.0000000000000E+00
(PID.TID 0000.0001) %MON thSI_Tic2_min_N              =  -3.5297031501443E+00
(PID.TID 0000.0001) %MON thSI_Tic2_max_S              =   0.0000000000000E+00
(PID.TID 0000.0001) %MON thSI_Tic2_max_N              =  -2.0330517148192E+00
(PID.TID 0000.0001) %MON thSI_TotEnerg_G              =  -8.3665206526759E+18
(PID.TID 0000.0001) // =======================================================
(PID.TID 0000.0001) // End MONITOR Therm.SeaIce statistics
(PID.TID 0000.0001) // =======================================================
 cg2d: Sum(rhs),rhsMax =   9.31322574615479E-10  1.71474021919409E+04
(PID.TID 0000.0001)      cg2d_init_res =   9.64360665855140E+03
(PID.TID 0000.0001)      cg2d_iters(min,last) =      -1      16
(PID.TID 0000.0001)      cg2d_last_res =   5.34432110193729E-11
(PID.TID 0000.0001) // =======================================================
(PID.TID 0000.0001) // Begin MONITOR dynamic field statistics
(PID.TID 0000.0001) // =======================================================
(PID.TID 0000.0001) %MON time_tsnumber                =                    38
(PID.TID 0000.0001) %MON time_secondsf                =   1.7100000000000E+04
(PID.TID 0000.0001) %MON dynstat_eta_max              =   3.0472889044650E+03
(PID.TID 0000.0001) %MON dynstat_eta_min              =  -9.0043065120718E+02
(PID.TID 0000.0001) %MON dynstat_eta_mean             =   5.1410424899250E-14
(PID.TID 0000.0001) %MON dynstat_eta_sd               =   4.2541594284165E+02
(PID.TID 0000.0001) %MON dynstat_eta_del2             =   4.4637252132223E+00
(PID.TID 0000.0001) %MON dynstat_uvel_max             =   4.3245736739620E+00
(PID.TID 0000.0001) %MON dynstat_uvel_min             =  -3.5894465021116E+00
(PID.TID 0000.0001) %MON dynstat_uvel_mean            =   9.1806766136836E-02
(PID.TID 0000.0001) %MON dynstat_uvel_sd              =   7.3045887976776E-01
(PID.TID 0000.0001) %MON dynstat_uvel_del2            =   1.7425567314106E-03
(PID.TID 0000.0001) %MON dynstat_vvel_max             =   3.8960325991597E+00
(PID.TID 0000.0001) %MON dynstat_vvel_min             =  -4.1724356812558E+00
(PID.TID 0000.0001) %MON dynstat_vvel_mean            =   2.7285459008083E-02
(PID.TID 0000.0001) %MON dynstat_vvel_sd              =   7.5817805430066E-01
(PID.TID 0000.0001) %MON dynstat_vvel_del2            =   1.6550927945500E-03
(PID.TID 0000.0001) %MON dynstat_wvel_max             =   1.1065159449251E-01
(PID.TID 0000.0001) %MON dynstat_wvel_min             =  -9.8577345646712E-02
(PID.TID 0000.0001) %MON dynstat_wvel_mean            =   2.3752099369829E-04
(PID.TID 0000.0001) %MON dynstat_wvel_sd              =   9.0660570776134E-03
(PID.TID 0000.0001) %MON dynstat_wvel_del2            =   1.1728051192528E-04
(PID.TID 0000.0001) %MON dynstat_theta_max            =   4.3838636424963E+02
(PID.TID 0000.0001) %MON dynstat_theta_min            =   2.8087461525870E+02
(PID.TID 0000.0001) %MON dynstat_theta_mean           =   3.3165624625922E+02
(PID.TID 0000.0001) %MON dynstat_theta_sd             =   4.7480309766267E+01
(PID.TID 0000.0001) %MON dynstat_theta_del2           =   2.6343988661584E-03
(PID.TID 0000.0001) %MON dynstat_salt_max             =   4.9918862962322E+00
(PID.TID 0000.0001) %MON dynstat_salt_min             =  -4.1645881674222E-02
(PID.TID 0000.0001) %MON dynstat_salt_mean            =   1.3342496553668E-01
(PID.TID 0000.0001) %MON dynstat_salt_sd              =   5.0530984763382E-01
(PID.TID 0000.0001) %MON dynstat_salt_del2            =   1.4458874412909E-03
(PID.TID 0000.0001) %MON advcfl_uvel_max              =   6.4994500318409E-03
(PID.TID 0000.0001) %MON advcfl_vvel_max              =   7.2748609525878E-03
(PID.TID 0000.0001) %MON advcfl_wvel_max              =   2.8453267155217E-03
(PID.TID 0000.0001) %MON advcfl_W_hf_max              =   1.1086989974021E-02
(PID.TID 0000.0001) %MON am_eta_mean                  =  -1.8559866279623E+10
(PID.TID 0000.0001) %MON am_uZo_mean                  =   1.8350640064256E+10
(PID.TID 0000.0001) %MON am_tot_mean                  =  -2.0922621536674E+08
(PID.TID 0000.0001) %MON pe_b_mean                    =  -1.1751134341239E+00
(PID.TID 0000.0001) %MON ke_max                       =   9.2405188636735E+00
(PID.TID 0000.0001) %MON ke_mean                      =   5.5543506692477E-01
(PID.TID 0000.0001) %MON ke_vol                       =   4.9523908919847E+19
(PID.TID 0000.0001) %MON vort_r_min                   =  -1.5766824178837E-05
(PID.TID 0000.0001) %MON vort_r_max                   =   1.6811817873892E-05
(PID.TID 0000.0001) %MON vort_a_mean                  =   6.7242814765301E-08
(PID.TID 0000.0001) %MON vort_a_sd                    =   8.4019350897737E-05
(PID.TID 0000.0001) %MON vort_p_mean                  =   6.8939481544173E-08
(PID.TID 0000.0001) %MON vort_p_sd                    =   9.1618855586619E-05
(PID.TID 0000.0001) %MON surfExpan_theta_mean         =  -2.2793390413947E-02
(PID.TID 0000.0001) %MON surfExpan_salt_mean          =  -1.8342943119893E-03
(PID.TID 0000.0001) %MON surfExpan_Heat_mean          =   1.7290222997603E+00
(PID.TID 0000.0001) %MON En_Budget_T2PE_mean          =  -3.4515946564093E+00
(PID.TID 0000.0001) // =======================================================
(PID.TID 0000.0001) // End MONITOR dynamic field statistics
(PID.TID 0000.0001) // =======================================================
(PID.TID 0000.0001) // =======================================================
(PID.TID 0000.0001) // Begin MONITOR Land statistics
(PID.TID 0000.0001) // =======================================================
(PID.TID 0000.0001) %MON land_time_sec                =   1.7100000000000E+04
(PID.TID 0000.0001) %MON land_SnwH_ave_G              =   1.5321145044707E-01
(PID.TID 0000.0001) %MON land_SnwH_ave_S              =   5.5903002588249E-01
(PID.TID 0000.0001) %MON land_SnwH_ave_T              =   0.0000000000000E+00
(PID.TID 0000.0001) %MON land_SnwH_ave_N              =   1.2387647800425E-01
(PID.TID 0000.0001) %MON land_SnwH_max_S              =   9.9997907379001E-01
(PID.TID 0000.0001) %MON land_SnwH_max_T              =   0.0000000000000E+00
(PID.TID 0000.0001) %MON land_SnwH_max_N              =   9.9999750935946E-01
(PID.TID 0000.0001) %MON land_Tsrf_ave_G              =  -8.6967839076262E+00
(PID.TID 0000.0001) %MON land_Tsrf_ave_S              =  -7.3536642364333E+00
(PID.TID 0000.0001) %MON land_Tsrf_ave_T              =   9.6200568048406E+00
(PID.TID 0000.0001) %MON land_Tsrf_ave_N              =  -2.1363931283920E+01
(PID.TID 0000.0001) %MON land_Tsrf_min_S              =  -3.3392370025395E+01
(PID.TID 0000.0001) %MON land_Tsrf_min_T              =  -3.1304390036966E+00
(PID.TID 0000.0001) %MON land_Tsrf_min_N              =  -5.1967851910362E+01
(PID.TID 0000.0001) %MON land_Tsrf_max_S              =   1.9943585319436E+01
(PID.TID 0000.0001) %MON land_Tsrf_max_T              =   1.9669230895271E+01
(PID.TID 0000.0001) %MON land_Tsrf_max_N              =   7.4443991321303E+00
(PID.TID 0000.0001) %MON land_Tgr1_ave_G              =  -7.5317620299315E+00
(PID.TID 0000.0001) %MON land_Tgr1_ave_S              =  -7.3117798743950E+00
(PID.TID 0000.0001) %MON land_Tgr1_ave_T              =   9.6200568048406E+00
(PID.TID 0000.0001) %MON land_Tgr1_ave_N              =  -1.9056603092314E+01
(PID.TID 0000.0001) %MON land_Tgr1_min_S              =  -3.9413131000650E+01
(PID.TID 0000.0001) %MON land_Tgr1_min_T              =  -3.1304390036966E+00
(PID.TID 0000.0001) %MON land_Tgr1_min_N              =  -5.4533618380176E+01
(PID.TID 0000.0001) %MON land_Tgr1_max_S              =   1.9943585319436E+01
(PID.TID 0000.0001) %MON land_Tgr1_max_T              =   1.9669230895271E+01
(PID.TID 0000.0001) %MON land_Tgr1_max_N              =   7.4443991321303E+00
(PID.TID 0000.0001) %MON land_Tgr2_ave_G              =   4.2014314495275E+00
(PID.TID 0000.0001) %MON land_Tgr2_ave_S              =  -1.8724152050826E+01
(PID.TID 0000.0001) %MON land_Tgr2_ave_T              =   2.2006889617246E+01
(PID.TID 0000.0001) %MON land_Tgr2_ave_N              =  -2.5161026557628E-01
(PID.TID 0000.0001) %MON land_Tgr2_min_S              =  -6.4745931511557E+01
(PID.TID 0000.0001) %MON land_Tgr2_min_T              =  -9.7026297882391E+00
(PID.TID 0000.0001) %MON land_Tgr2_min_N              =  -4.0202620659315E+01
(PID.TID 0000.0001) %MON land_Tgr2_max_S              =   2.3359094781763E+01
(PID.TID 0000.0001) %MON land_Tgr2_max_T              =   3.1346000211452E+01
(PID.TID 0000.0001) %MON land_Tgr2_max_N              =   2.9814420890837E+01
(PID.TID 0000.0001) %MON land_TotEnerg_G              =  -6.3649582434992E+21
(PID.TID 0000.0001) %MON land_TotEnerg_S              =  -5.0024523093596E+21
(PID.TID 0000.0001) %MON land_TotEnerg_T              =   7.2713827981329E+21
(PID.TID 0000.0001) %MON land_TotEnerg_N              =  -8.6338887322725E+21
(PID.TID 0000.0001) %MON land_grdW_ave_G              =   4.8666377454683E-01
(PID.TID 0000.0001) %MON land_grdW_ave_S              =   3.0842838416556E-01
(PID.TID 0000.0001) %MON land_grdW_ave_T              =   5.6395346174808E-01
(PID.TID 0000.0001) %MON land_grdW_ave_N              =   4.9287046911899E-01
(PID.TID 0000.0001) %MON land_grdW_min_S              =   2.8617942912492E-02
(PID.TID 0000.0001) %MON land_grdW_min_T              =   0.0000000000000E+00
(PID.TID 0000.0001) %MON land_grdW_min_N              =   0.0000000000000E+00
(PID.TID 0000.0001) // =======================================================
(PID.TID 0000.0001) // End MONITOR Land statistics
(PID.TID 0000.0001) // =======================================================
(PID.TID 0000.0001) // =======================================================
(PID.TID 0000.0001) // Begin MONITOR Therm.SeaIce statistics
(PID.TID 0000.0001) // =======================================================
(PID.TID 0000.0001) %MON thSI_time_sec                =   1.7100000000000E+04
(PID.TID 0000.0001) %MON thSI_Ice_Area_G              =   2.5204212607934E+11
(PID.TID 0000.0001) %MON thSI_Ice_Area_S              =   0.0000000000000E+00
(PID.TID 0000.0001) %MON thSI_Ice_Area_N              =   2.5204212607934E+11
(PID.TID 0000.0001) %MON thSI_IceH_ave_G              =   1.0790573148138E-01
(PID.TID 0000.0001) %MON thSI_IceH_ave_S              =   0.0000000000000E+00
(PID.TID 0000.0001) %MON thSI_IceH_ave_N              =   1.0790573148138E-01
(PID.TID 0000.0001) %MON thSI_IceH_max_S              =   0.0000000000000E+00
(PID.TID 0000.0001) %MON thSI_IceH_max_N              =   1.4813630972785E-01
(PID.TID 0000.0001) %MON thSI_SnwH_ave_G              =   0.0000000000000E+00
(PID.TID 0000.0001) %MON thSI_SnwH_ave_S              =   0.0000000000000E+00
(PID.TID 0000.0001) %MON thSI_SnwH_ave_N              =   0.0000000000000E+00
(PID.TID 0000.0001) %MON thSI_SnwH_max_S              =   0.0000000000000E+00
(PID.TID 0000.0001) %MON thSI_SnwH_max_N              =   0.0000000000000E+00
(PID.TID 0000.0001) %MON thSI_Tsrf_ave_G              =  -7.9019890134782E+00
(PID.TID 0000.0001) %MON thSI_Tsrf_ave_S              =   0.0000000000000E+00
(PID.TID 0000.0001) %MON thSI_Tsrf_ave_N              =  -7.9019890134782E+00
(PID.TID 0000.0001) %MON thSI_Tsrf_min_S              =   0.0000000000000E+00
(PID.TID 0000.0001) %MON thSI_Tsrf_min_N              =  -9.6829618420771E+00
(PID.TID 0000.0001) %MON thSI_Tsrf_max_S              =   0.0000000000000E+00
(PID.TID 0000.0001) %MON thSI_Tsrf_max_N              =  -3.3319184689065E+00
(PID.TID 0000.0001) %MON thSI_Tic1_ave_G              =  -6.9987757013350E+00
(PID.TID 0000.0001) %MON thSI_Tic1_ave_S              =   0.0000000000000E+00
(PID.TID 0000.0001) %MON thSI_Tic1_ave_N              =  -6.9987757013350E+00
(PID.TID 0000.0001) %MON thSI_Tic1_min_S              =   0.0000000000000E+00
(PID.TID 0000.0001) %MON thSI_Tic1_min_N              =  -7.4561161237475E+00
(PID.TID 0000.0001) %MON thSI_Tic1_max_S              =   0.0000000000000E+00
(PID.TID 0000.0001) %MON thSI_Tic1_max_N              =  -2.9024838431346E+00
(PID.TID 0000.0001) %MON thSI_Tic2_ave_G              =  -3.3875487064134E+00
(PID.TID 0000.0001) %MON thSI_Tic2_ave_S              =   0.0000000000000E+00
(PID.TID 0000.0001) %MON thSI_Tic2_ave_N              =  -3.3875487064134E+00
(PID.TID 0000.0001) %MON thSI_Tic2_min_S              =   0.0000000000000E+00
(PID.TID 0000.0001) %MON thSI_Tic2_min_N              =  -3.5446012596400E+00
(PID.TID 0000.0001) %MON thSI_Tic2_max_S              =   0.0000000000000E+00
(PID.TID 0000.0001) %MON thSI_Tic2_max_N              =  -2.0429832805819E+00
(PID.TID 0000.0001) %MON thSI_TotEnerg_G              =  -8.4111771907438E+18
(PID.TID 0000.0001) // =======================================================
(PID.TID 0000.0001) // End MONITOR Therm.SeaIce statistics
(PID.TID 0000.0001) // =======================================================
 cg2d: Sum(rhs),rhsMax =   2.56113708019257E-09  1.72242009333847E+04
(PID.TID 0000.0001)      cg2d_init_res =   9.50568156004664E+03
(PID.TID 0000.0001)      cg2d_iters(min,last) =      -1      16
(PID.TID 0000.0001)      cg2d_last_res =   5.34540213547929E-11
(PID.TID 0000.0001) // =======================================================
(PID.TID 0000.0001) // Begin MONITOR dynamic field statistics
(PID.TID 0000.0001) // =======================================================
(PID.TID 0000.0001) %MON time_tsnumber                =                    39
(PID.TID 0000.0001) %MON time_secondsf                =   1.7550000000000E+04
(PID.TID 0000.0001) %MON dynstat_eta_max              =   3.0653107346070E+03
(PID.TID 0000.0001) %MON dynstat_eta_min              =  -9.4919661138413E+02
(PID.TID 0000.0001) %MON dynstat_eta_mean             =  -5.1410424899250E-14
(PID.TID 0000.0001) %MON dynstat_eta_sd               =   4.2434672932099E+02
(PID.TID 0000.0001) %MON dynstat_eta_del2             =   4.4683887141046E+00
(PID.TID 0000.0001) %MON dynstat_uvel_max             =   4.4600314497469E+00
(PID.TID 0000.0001) %MON dynstat_uvel_min             =  -3.3566274840258E+00
(PID.TID 0000.0001) %MON dynstat_uvel_mean            =   9.6803214887434E-02
(PID.TID 0000.0001) %MON dynstat_uvel_sd              =   7.2178239121816E-01
(PID.TID 0000.0001) %MON dynstat_uvel_del2            =   1.7954395986582E-03
(PID.TID 0000.0001) %MON dynstat_vvel_max             =   3.7155063225562E+00
(PID.TID 0000.0001) %MON dynstat_vvel_min             =  -4.1121730124770E+00
(PID.TID 0000.0001) %MON dynstat_vvel_mean            =   2.9636573510439E-02
(PID.TID 0000.0001) %MON dynstat_vvel_sd              =   7.4920546493213E-01
(PID.TID 0000.0001) %MON dynstat_vvel_del2            =   1.7003921828391E-03
(PID.TID 0000.0001) %MON dynstat_wvel_max             =   1.1461844259073E-01
(PID.TID 0000.0001) %MON dynstat_wvel_min             =  -1.0153669709565E-01
(PID.TID 0000.0001) %MON dynstat_wvel_mean            =   1.9731237456601E-04
(PID.TID 0000.0001) %MON dynstat_wvel_sd              =   9.0636351102068E-03
(PID.TID 0000.0001) %MON dynstat_wvel_del2            =   1.1913915641755E-04
(PID.TID 0000.0001) %MON dynstat_theta_max            =   4.3844709373923E+02
(PID.TID 0000.0001) %MON dynstat_theta_min            =   2.8066191680155E+02
(PID.TID 0000.0001) %MON dynstat_theta_mean           =   3.3165386482131E+02
(PID.TID 0000.0001) %MON dynstat_theta_sd             =   4.7482463284286E+01
(PID.TID 0000.0001) %MON dynstat_theta_del2           =   2.6902103868641E-03
(PID.TID 0000.0001) %MON dynstat_salt_max             =   5.0191640456927E+00
(PID.TID 0000.0001) %MON dynstat_salt_min             =  -4.4297641791940E-02
(PID.TID 0000.0001) %MON dynstat_salt_mean            =   1.3666089554547E-01
(PID.TID 0000.0001) %MON dynstat_salt_sd              =   5.1598930334710E-01
(PID.TID 0000.0001) %MON dynstat_salt_del2            =   1.4737252524350E-03
(PID.TID 0000.0001) %MON advcfl_uvel_max              =   6.7030310346202E-03
(PID.TID 0000.0001) %MON advcfl_vvel_max              =   6.8094710946755E-03
(PID.TID 0000.0001) %MON advcfl_wvel_max              =   2.9473313809046E-03
(PID.TID 0000.0001) %MON advcfl_W_hf_max              =   1.1602585241208E-02
(PID.TID 0000.0001) %MON am_eta_mean                  =  -1.8918208021675E+10
(PID.TID 0000.0001) %MON am_uZo_mean                  =   1.8699780961791E+10
(PID.TID 0000.0001) %MON am_tot_mean                  =  -2.1842705988377E+08
(PID.TID 0000.0001) %MON pe_b_mean                    =  -1.1672270841967E+00
(PID.TID 0000.0001) %MON ke_max                       =   9.0899683010611E+00
(PID.TID 0000.0001) %MON ke_mean                      =   5.4298495806273E-01
(PID.TID 0000.0001) %MON ke_vol                       =   4.9523908919847E+19
(PID.TID 0000.0001) %MON vort_r_min                   =  -1.5305733721833E-05
(PID.TID 0000.0001) %MON vort_r_max                   =   1.7457595445709E-05
(PID.TID 0000.0001) %MON vort_a_mean                  =   6.7242814765328E-08
(PID.TID 0000.0001) %MON vort_a_sd                    =   8.4020878137499E-05
(PID.TID 0000.0001) %MON vort_p_mean                  =   6.8939480834621E-08
(PID.TID 0000.0001) %MON vort_p_sd                    =   9.1612069705217E-05
(PID.TID 0000.0001) %MON surfExpan_theta_mean         =  -1.8914388798266E-02
(PID.TID 0000.0001) %MON surfExpan_salt_mean          =  -1.8223459900758E-03
(PID.TID 0000.0001) %MON surfExpan_Heat_mean          =   1.4109303160364E+00
(PID.TID 0000.0001) %MON En_Budget_T2PE_mean          =  -2.8461643315582E+00
(PID.TID 0000.0001) // =======================================================
(PID.TID 0000.0001) // End MONITOR dynamic field statistics
(PID.TID 0000.0001) // =======================================================
(PID.TID 0000.0001) // =======================================================
(PID.TID 0000.0001) // Begin MONITOR Land statistics
(PID.TID 0000.0001) // =======================================================
(PID.TID 0000.0001) %MON land_time_sec                =   1.7550000000000E+04
(PID.TID 0000.0001) %MON land_SnwH_ave_G              =   1.5321053463559E-01
(PID.TID 0000.0001) %MON land_SnwH_ave_S              =   5.5902919357569E-01
(PID.TID 0000.0001) %MON land_SnwH_ave_T              =   0.0000000000000E+00
(PID.TID 0000.0001) %MON land_SnwH_ave_N              =   1.2387492355239E-01
(PID.TID 0000.0001) %MON land_SnwH_max_S              =   9.9997849803014E-01
(PID.TID 0000.0001) %MON land_SnwH_max_T              =   0.0000000000000E+00
(PID.TID 0000.0001) %MON land_SnwH_max_N              =   9.9999744509795E-01
(PID.TID 0000.0001) %MON land_Tsrf_ave_G              =  -8.7072475101842E+00
(PID.TID 0000.0001) %MON land_Tsrf_ave_S              =  -7.3375875546213E+00
(PID.TID 0000.0001) %MON land_Tsrf_ave_T              =   9.5923600243532E+00
(PID.TID 0000.0001) %MON land_Tsrf_ave_N              =  -2.1371496583613E+01
(PID.TID 0000.0001) %MON land_Tsrf_min_S              =  -3.3358848215325E+01
(PID.TID 0000.0001) %MON land_Tsrf_min_T              =  -3.2297385699653E+00
(PID.TID 0000.0001) %MON land_Tsrf_min_N              =  -5.1967394575488E+01
(PID.TID 0000.0001) %MON land_Tsrf_max_S              =   1.9940840623002E+01
(PID.TID 0000.0001) %MON land_Tsrf_max_T              =   1.9645246389851E+01
(PID.TID 0000.0001) %MON land_Tsrf_max_N              =   7.4097797360492E+00
(PID.TID 0000.0001) %MON land_Tgr1_ave_G              =  -7.5477044417545E+00
(PID.TID 0000.0001) %MON land_Tgr1_ave_S              =  -7.3148854861843E+00
(PID.TID 0000.0001) %MON land_Tgr1_ave_T              =   9.5923600243532E+00
(PID.TID 0000.0001) %MON land_Tgr1_ave_N              =  -1.9068860462148E+01
(PID.TID 0000.0001) %MON land_Tgr1_min_S              =  -3.9423497737751E+01
(PID.TID 0000.0001) %MON land_Tgr1_min_T              =  -3.2297385699653E+00
(PID.TID 0000.0001) %MON land_Tgr1_min_N              =  -5.4521341866589E+01
(PID.TID 0000.0001) %MON land_Tgr1_max_S              =   1.9940840623002E+01
(PID.TID 0000.0001) %MON land_Tgr1_max_T              =   1.9645246389851E+01
(PID.TID 0000.0001) %MON land_Tgr1_max_N              =   7.4097797360492E+00
(PID.TID 0000.0001) %MON land_Tgr2_ave_G              =   4.2012521770949E+00
(PID.TID 0000.0001) %MON land_Tgr2_ave_S              =  -1.8723960671060E+01
(PID.TID 0000.0001) %MON land_Tgr2_ave_T              =   2.2006690956056E+01
(PID.TID 0000.0001) %MON land_Tgr2_ave_N              =  -2.5189682808137E-01
(PID.TID 0000.0001) %MON land_Tgr2_min_S              =  -6.4745504888054E+01
(PID.TID 0000.0001) %MON land_Tgr2_min_T              =  -9.7025361625739E+00
(PID.TID 0000.0001) %MON land_Tgr2_min_N              =  -4.0202852949320E+01
(PID.TID 0000.0001) %MON land_Tgr2_max_S              =   2.3359018483000E+01
(PID.TID 0000.0001) %MON land_Tgr2_max_T              =   3.1345545536495E+01
(PID.TID 0000.0001) %MON land_Tgr2_max_N              =   2.9813841363080E+01
(PID.TID 0000.0001) %MON land_TotEnerg_G              =  -6.3657187696984E+21
(PID.TID 0000.0001) %MON land_TotEnerg_S              =  -5.0024413638961E+21
(PID.TID 0000.0001) %MON land_TotEnerg_T              =   7.2710898523338E+21
(PID.TID 0000.0001) %MON land_TotEnerg_N              =  -8.6343672581361E+21
(PID.TID 0000.0001) %MON land_grdW_ave_G              =   4.8665680071494E-01
(PID.TID 0000.0001) %MON land_grdW_ave_S              =   3.0842115598937E-01
(PID.TID 0000.0001) %MON land_grdW_ave_T              =   5.6393661089346E-01
(PID.TID 0000.0001) %MON land_grdW_ave_N              =   4.9287017338015E-01
(PID.TID 0000.0001) %MON land_grdW_min_S              =   2.8699610602284E-02
(PID.TID 0000.0001) %MON land_grdW_min_T              =   0.0000000000000E+00
(PID.TID 0000.0001) %MON land_grdW_min_N              =   0.0000000000000E+00
(PID.TID 0000.0001) // =======================================================
(PID.TID 0000.0001) // End MONITOR Land statistics
(PID.TID 0000.0001) // =======================================================
(PID.TID 0000.0001) // =======================================================
(PID.TID 0000.0001) // Begin MONITOR Therm.SeaIce statistics
(PID.TID 0000.0001) // =======================================================
(PID.TID 0000.0001) %MON thSI_time_sec                =   1.7550000000000E+04
(PID.TID 0000.0001) %MON thSI_Ice_Area_G              =   2.5458765026922E+11
(PID.TID 0000.0001) %MON thSI_Ice_Area_S              =   0.0000000000000E+00
(PID.TID 0000.0001) %MON thSI_Ice_Area_N              =   2.5458765026922E+11
(PID.TID 0000.0001) %MON thSI_IceH_ave_G              =   1.0738953064300E-01
(PID.TID 0000.0001) %MON thSI_IceH_ave_S              =   0.0000000000000E+00
(PID.TID 0000.0001) %MON thSI_IceH_ave_N              =   1.0738953064300E-01
(PID.TID 0000.0001) %MON thSI_IceH_max_S              =   0.0000000000000E+00
(PID.TID 0000.0001) %MON thSI_IceH_max_N              =   1.4828178548260E-01
(PID.TID 0000.0001) %MON thSI_SnwH_ave_G              =   0.0000000000000E+00
(PID.TID 0000.0001) %MON thSI_SnwH_ave_S              =   0.0000000000000E+00
(PID.TID 0000.0001) %MON thSI_SnwH_ave_N              =   0.0000000000000E+00
(PID.TID 0000.0001) %MON thSI_SnwH_max_S              =   0.0000000000000E+00
(PID.TID 0000.0001) %MON thSI_SnwH_max_N              =   0.0000000000000E+00
(PID.TID 0000.0001) %MON thSI_Tsrf_ave_G              =  -7.8784184176995E+00
(PID.TID 0000.0001) %MON thSI_Tsrf_ave_S              =   0.0000000000000E+00
(PID.TID 0000.0001) %MON thSI_Tsrf_ave_N              =  -7.8784184176995E+00
(PID.TID 0000.0001) %MON thSI_Tsrf_min_S              =   0.0000000000000E+00
(PID.TID 0000.0001) %MON thSI_Tsrf_min_N              =  -9.7031306486075E+00
(PID.TID 0000.0001) %MON thSI_Tsrf_max_S              =   0.0000000000000E+00
(PID.TID 0000.0001) %MON thSI_Tsrf_max_N              =  -3.3718694472180E+00
(PID.TID 0000.0001) %MON thSI_Tic1_ave_G              =  -7.0089161697314E+00
(PID.TID 0000.0001) %MON thSI_Tic1_ave_S              =   0.0000000000000E+00
(PID.TID 0000.0001) %MON thSI_Tic1_ave_N              =  -7.0089161697314E+00
(PID.TID 0000.0001) %MON thSI_Tic1_min_S              =   0.0000000000000E+00
(PID.TID 0000.0001) %MON thSI_Tic1_min_N              =  -7.4855165557741E+00
(PID.TID 0000.0001) %MON thSI_Tic1_max_S              =   0.0000000000000E+00
(PID.TID 0000.0001) %MON thSI_Tic1_max_N              =  -2.9322178067911E+00
(PID.TID 0000.0001) %MON thSI_Tic2_ave_G              =  -3.3949069219903E+00
(PID.TID 0000.0001) %MON thSI_Tic2_ave_S              =   0.0000000000000E+00
(PID.TID 0000.0001) %MON thSI_Tic2_ave_N              =  -3.3949069219903E+00
(PID.TID 0000.0001) %MON thSI_Tic2_min_S              =   0.0000000000000E+00
(PID.TID 0000.0001) %MON thSI_Tic2_min_N              =  -3.5581306069121E+00
(PID.TID 0000.0001) %MON thSI_Tic2_max_S              =   0.0000000000000E+00
(PID.TID 0000.0001) %MON thSI_Tic2_max_N              =  -2.0527513424234E+00
(PID.TID 0000.0001) %MON thSI_TotEnerg_G              =  -8.4559252074954E+18
(PID.TID 0000.0001) // =======================================================
(PID.TID 0000.0001) // End MONITOR Therm.SeaIce statistics
(PID.TID 0000.0001) // =======================================================
 cg2d: Sum(rhs),rhsMax =   3.02679836750031E-09  1.72792864724176E+04
(PID.TID 0000.0001)      cg2d_init_res =   9.37422572188896E+03
(PID.TID 0000.0001)      cg2d_iters(min,last) =      -1      16
(PID.TID 0000.0001)      cg2d_last_res =   5.38668000678070E-11
(PID.TID 0000.0001) // =======================================================
(PID.TID 0000.0001) // Begin MONITOR dynamic field statistics
(PID.TID 0000.0001) // =======================================================
(PID.TID 0000.0001) %MON time_tsnumber                =                    40
(PID.TID 0000.0001) %MON time_secondsf                =   1.8000000000000E+04
(PID.TID 0000.0001) %MON dynstat_eta_max              =   3.0797523581999E+03
(PID.TID 0000.0001) %MON dynstat_eta_min              =  -9.8496875381210E+02
(PID.TID 0000.0001) %MON dynstat_eta_mean             =  -5.1410424899250E-14
(PID.TID 0000.0001) %MON dynstat_eta_sd               =   4.2412897045866E+02
(PID.TID 0000.0001) %MON dynstat_eta_del2             =   4.4713461268361E+00
(PID.TID 0000.0001) %MON dynstat_uvel_max             =   4.5947357727628E+00
(PID.TID 0000.0001) %MON dynstat_uvel_min             =  -3.2955460346234E+00
(PID.TID 0000.0001) %MON dynstat_uvel_mean            =   1.0118737474957E-01
(PID.TID 0000.0001) %MON dynstat_uvel_sd              =   7.1302132173122E-01
(PID.TID 0000.0001) %MON dynstat_uvel_del2            =   1.8492071826712E-03
(PID.TID 0000.0001) %MON dynstat_vvel_max             =   3.6663067396732E+00
(PID.TID 0000.0001) %MON dynstat_vvel_min             =  -4.1235968876671E+00
(PID.TID 0000.0001) %MON dynstat_vvel_mean            =   3.2465247969260E-02
(PID.TID 0000.0001) %MON dynstat_vvel_sd              =   7.4043451896465E-01
(PID.TID 0000.0001) %MON dynstat_vvel_del2            =   1.7470259232266E-03
(PID.TID 0000.0001) %MON dynstat_wvel_max             =   1.1855798535232E-01
(PID.TID 0000.0001) %MON dynstat_wvel_min             =  -1.0419135535585E-01
(PID.TID 0000.0001) %MON dynstat_wvel_mean            =   1.5985624680690E-04
(PID.TID 0000.0001) %MON dynstat_wvel_sd              =   9.1093117157069E-03
(PID.TID 0000.0001) %MON dynstat_wvel_del2            =   1.2154381012320E-04
(PID.TID 0000.0001) %MON dynstat_theta_max            =   4.3848381515426E+02
(PID.TID 0000.0001) %MON dynstat_theta_min            =   2.8044914368558E+02
(PID.TID 0000.0001) %MON dynstat_theta_mean           =   3.3165146913309E+02
(PID.TID 0000.0001) %MON dynstat_theta_sd             =   4.7484627213326E+01
(PID.TID 0000.0001) %MON dynstat_theta_del2           =   2.7451597143233E-03
(PID.TID 0000.0001) %MON dynstat_salt_max             =   5.0460081709771E+00
(PID.TID 0000.0001) %MON dynstat_salt_min             =  -4.6988110612417E-02
(PID.TID 0000.0001) %MON dynstat_salt_mean            =   1.3988756612429E-01
(PID.TID 0000.0001) %MON dynstat_salt_sd              =   5.2658508024447E-01
(PID.TID 0000.0001) %MON dynstat_salt_del2            =   1.5017042835876E-03
(PID.TID 0000.0001) %MON advcfl_uvel_max              =   7.0335169988353E-03
(PID.TID 0000.0001) %MON advcfl_vvel_max              =   6.2004479341868E-03
(PID.TID 0000.0001) %MON advcfl_wvel_max              =   3.0486339090596E-03
(PID.TID 0000.0001) %MON advcfl_W_hf_max              =   1.2113691404036E-02
(PID.TID 0000.0001) %MON am_eta_mean                  =  -1.9244550859543E+10
(PID.TID 0000.0001) %MON am_uZo_mean                  =   1.9016670816511E+10
(PID.TID 0000.0001) %MON am_tot_mean                  =  -2.2788004303273E+08
(PID.TID 0000.0001) %MON pe_b_mean                    =  -1.1593814984628E+00
(PID.TID 0000.0001) %MON ke_max                       =   8.9805768146186E+00
(PID.TID 0000.0001) %MON ke_mean                      =   5.3076246461468E-01
(PID.TID 0000.0001) %MON ke_vol                       =   4.9523908919847E+19
(PID.TID 0000.0001) %MON vort_r_min                   =  -1.6364093267321E-05
(PID.TID 0000.0001) %MON vort_r_max                   =   1.8069265480658E-05
(PID.TID 0000.0001) %MON vort_a_mean                  =   6.7242814765343E-08
(PID.TID 0000.0001) %MON vort_a_sd                    =   8.4022289007785E-05
(PID.TID 0000.0001) %MON vort_p_mean                  =   6.8939479643112E-08
(PID.TID 0000.0001) %MON vort_p_sd                    =   9.1606160049892E-05
(PID.TID 0000.0001) %MON surfExpan_theta_mean         =  -1.5339146408136E-02
(PID.TID 0000.0001) %MON surfExpan_salt_mean          =  -1.7944672841317E-03
(PID.TID 0000.0001) %MON surfExpan_Heat_mean          =   1.1179527702367E+00
(PID.TID 0000.0001) %MON En_Budget_T2PE_mean          =  -2.2870894884742E+00
(PID.TID 0000.0001) // =======================================================
(PID.TID 0000.0001) // End MONITOR dynamic field statistics
(PID.TID 0000.0001) // =======================================================
(PID.TID 0000.0001) // =======================================================
(PID.TID 0000.0001) // Begin MONITOR Land statistics
(PID.TID 0000.0001) // =======================================================
(PID.TID 0000.0001) %MON land_time_sec                =   1.8000000000000E+04
(PID.TID 0000.0001) %MON land_SnwH_ave_G              =   1.5320961984756E-01
(PID.TID 0000.0001) %MON land_SnwH_ave_S              =   5.5902836129102E-01
(PID.TID 0000.0001) %MON land_SnwH_ave_T              =   0.0000000000000E+00
(PID.TID 0000.0001) %MON land_SnwH_ave_N              =   1.2387337113222E-01
(PID.TID 0000.0001) %MON land_SnwH_max_S              =   9.9997792025384E-01
(PID.TID 0000.0001) %MON land_SnwH_max_T              =   0.0000000000000E+00
(PID.TID 0000.0001) %MON land_SnwH_max_N              =   9.9999738077608E-01
(PID.TID 0000.0001) %MON land_Tsrf_ave_G              =  -8.7164184842917E+00
(PID.TID 0000.0001) %MON land_Tsrf_ave_S              =  -7.3184256665414E+00
(PID.TID 0000.0001) %MON land_Tsrf_ave_T              =   9.5664355933283E+00
(PID.TID 0000.0001) %MON land_Tsrf_ave_N              =  -2.1378671099761E+01
(PID.TID 0000.0001) %MON land_Tsrf_min_S              =  -3.3324477489399E+01
(PID.TID 0000.0001) %MON land_Tsrf_min_T              =  -3.3695976586850E+00
(PID.TID 0000.0001) %MON land_Tsrf_min_N              =  -5.1960129131588E+01
(PID.TID 0000.0001) %MON land_Tsrf_max_S              =   1.9940215839338E+01
(PID.TID 0000.0001) %MON land_Tsrf_max_T              =   1.9625054240543E+01
(PID.TID 0000.0001) %MON land_Tsrf_max_N              =   7.3762396402500E+00
(PID.TID 0000.0001) %MON land_Tgr1_ave_G              =  -7.5627675181573E+00
(PID.TID 0000.0001) %MON land_Tgr1_ave_S              =  -7.3173351234984E+00
(PID.TID 0000.0001) %MON land_Tgr1_ave_T              =   9.5664355933283E+00
(PID.TID 0000.0001) %MON land_Tgr1_ave_N              =  -1.9080762368147E+01
(PID.TID 0000.0001) %MON land_Tgr1_min_S              =  -3.9433816041827E+01
(PID.TID 0000.0001) %MON land_Tgr1_min_T              =  -3.3695976586850E+00
(PID.TID 0000.0001) %MON land_Tgr1_min_N              =  -5.4509078557938E+01
(PID.TID 0000.0001) %MON land_Tgr1_max_S              =   1.9940215839338E+01
(PID.TID 0000.0001) %MON land_Tgr1_max_T              =   1.9625054240543E+01
(PID.TID 0000.0001) %MON land_Tgr1_max_N              =   7.3762396402500E+00
(PID.TID 0000.0001) %MON land_Tgr2_ave_G              =   4.2010727739097E+00
(PID.TID 0000.0001) %MON land_Tgr2_ave_S              =  -1.8723769333511E+01
(PID.TID 0000.0001) %MON land_Tgr2_ave_T              =   2.2006492006628E+01
(PID.TID 0000.0001) %MON land_Tgr2_ave_N              =  -2.5218344489563E-01
(PID.TID 0000.0001) %MON land_Tgr2_min_S              =  -6.4745078461236E+01
(PID.TID 0000.0001) %MON land_Tgr2_min_T              =  -9.7024416753089E+00
(PID.TID 0000.0001) %MON land_Tgr2_min_N              =  -4.0203085013402E+01
(PID.TID 0000.0001) %MON land_Tgr2_max_S              =   2.3358941931370E+01
(PID.TID 0000.0001) %MON land_Tgr2_max_T              =   3.1345089913598E+01
(PID.TID 0000.0001) %MON land_Tgr2_max_N              =   2.9813259069586E+01
(PID.TID 0000.0001) %MON land_TotEnerg_G              =  -6.3664536308921E+21
(PID.TID 0000.0001) %MON land_TotEnerg_S              =  -5.0024281575565E+21
(PID.TID 0000.0001) %MON land_TotEnerg_T              =   7.2708133713706E+21
(PID.TID 0000.0001) %MON land_TotEnerg_N              =  -8.6348388447061E+21
(PID.TID 0000.0001) %MON land_grdW_ave_G              =   4.8664985329672E-01
(PID.TID 0000.0001) %MON land_grdW_ave_S              =   3.0841394529152E-01
(PID.TID 0000.0001) %MON land_grdW_ave_T              =   5.6391983073875E-01
(PID.TID 0000.0001) %MON land_grdW_ave_N              =   4.9286987738048E-01
(PID.TID 0000.0001) %MON land_grdW_min_S              =   2.8780407377526E-02
(PID.TID 0000.0001) %MON land_grdW_min_T              =   0.0000000000000E+00
(PID.TID 0000.0001) %MON land_grdW_min_N              =   0.0000000000000E+00
(PID.TID 0000.0001) // =======================================================
(PID.TID 0000.0001) // End MONITOR Land statistics
(PID.TID 0000.0001) // =======================================================
(PID.TID 0000.0001) // =======================================================
(PID.TID 0000.0001) // Begin MONITOR Therm.SeaIce statistics
(PID.TID 0000.0001) // =======================================================
(PID.TID 0000.0001) %MON thSI_time_sec                =   1.8000000000000E+04
(PID.TID 0000.0001) %MON thSI_Ice_Area_G              =   2.5703993066935E+11
(PID.TID 0000.0001) %MON thSI_Ice_Area_S              =   0.0000000000000E+00
(PID.TID 0000.0001) %MON thSI_Ice_Area_N              =   2.5703993066935E+11
(PID.TID 0000.0001) %MON thSI_IceH_ave_G              =   1.0692463403723E-01
(PID.TID 0000.0001) %MON thSI_IceH_ave_S              =   0.0000000000000E+00
(PID.TID 0000.0001) %MON thSI_IceH_ave_N              =   1.0692463403723E-01
(PID.TID 0000.0001) %MON thSI_IceH_max_S              =   0.0000000000000E+00
(PID.TID 0000.0001) %MON thSI_IceH_max_N              =   1.4842831030510E-01
(PID.TID 0000.0001) %MON thSI_SnwH_ave_G              =   0.0000000000000E+00
(PID.TID 0000.0001) %MON thSI_SnwH_ave_S              =   0.0000000000000E+00
(PID.TID 0000.0001) %MON thSI_SnwH_ave_N              =   0.0000000000000E+00
(PID.TID 0000.0001) %MON thSI_SnwH_max_S              =   0.0000000000000E+00
(PID.TID 0000.0001) %MON thSI_SnwH_max_N              =   0.0000000000000E+00
(PID.TID 0000.0001) %MON thSI_Tsrf_ave_G              =  -7.8556765992244E+00
(PID.TID 0000.0001) %MON thSI_Tsrf_ave_S              =   0.0000000000000E+00
(PID.TID 0000.0001) %MON thSI_Tsrf_ave_N              =  -7.8556765992244E+00
(PID.TID 0000.0001) %MON thSI_Tsrf_min_S              =   0.0000000000000E+00
(PID.TID 0000.0001) %MON thSI_Tsrf_min_N              =  -9.7206181899484E+00
(PID.TID 0000.0001) %MON thSI_Tsrf_max_S              =   0.0000000000000E+00
(PID.TID 0000.0001) %MON thSI_Tsrf_max_N              =  -3.4111835126825E+00
(PID.TID 0000.0001) %MON thSI_Tic1_ave_G              =  -7.0165205263409E+00
(PID.TID 0000.0001) %MON thSI_Tic1_ave_S              =   0.0000000000000E+00
(PID.TID 0000.0001) %MON thSI_Tic1_ave_N              =  -7.0165205263409E+00
(PID.TID 0000.0001) %MON thSI_Tic1_min_S              =   0.0000000000000E+00
(PID.TID 0000.0001) %MON thSI_Tic1_min_N              =  -7.5126754285294E+00
(PID.TID 0000.0001) %MON thSI_Tic1_max_S              =   0.0000000000000E+00
(PID.TID 0000.0001) %MON thSI_Tic1_max_N              =  -2.9614716938941E+00
(PID.TID 0000.0001) %MON thSI_Tic2_ave_G              =  -3.4011352192513E+00
(PID.TID 0000.0001) %MON thSI_Tic2_ave_S              =   0.0000000000000E+00
(PID.TID 0000.0001) %MON thSI_Tic2_ave_N              =  -3.4011352192513E+00
(PID.TID 0000.0001) %MON thSI_Tic2_min_S              =   0.0000000000000E+00
(PID.TID 0000.0001) %MON thSI_Tic2_min_N              =  -3.5703848751951E+00
(PID.TID 0000.0001) %MON thSI_Tic2_max_S              =   0.0000000000000E+00
(PID.TID 0000.0001) %MON thSI_Tic2_max_N              =  -2.0623579853758E+00
(PID.TID 0000.0001) %MON thSI_TotEnerg_G              =  -8.5007576894502E+18
(PID.TID 0000.0001) // =======================================================
(PID.TID 0000.0001) // End MONITOR Therm.SeaIce statistics
(PID.TID 0000.0001) // =======================================================
(PID.TID 0000.0001) %CHECKPOINT        40 ckptA
(PID.TID 0000.0001)   Seconds in section "ALL                    [THE_MODEL_MAIN]":
(PID.TID 0000.0001)           User time:   25.340000000000000
(PID.TID 0000.0001)         System time:  5.99999999999999978E-002
(PID.TID 0000.0001)     Wall clock time:   25.466977119445801
(PID.TID 0000.0001)          No. starts:           1
(PID.TID 0000.0001)           No. stops:           1
(PID.TID 0000.0001)   Seconds in section "INITIALISE_FIXED       [THE_MODEL_MAIN]":
(PID.TID 0000.0001)           User time:  0.17999999999999999
(PID.TID 0000.0001)         System time:  1.00000000000000002E-002
(PID.TID 0000.0001)     Wall clock time:  0.19945502281188965
(PID.TID 0000.0001)          No. starts:           1
(PID.TID 0000.0001)           No. stops:           1
(PID.TID 0000.0001)   Seconds in section "THE_MAIN_LOOP          [THE_MODEL_MAIN]":
(PID.TID 0000.0001)           User time:   25.160000000000000
(PID.TID 0000.0001)         System time:  4.99999999999999958E-002
(PID.TID 0000.0001)     Wall clock time:   25.267479896545410
(PID.TID 0000.0001)          No. starts:           1
(PID.TID 0000.0001)           No. stops:           1
(PID.TID 0000.0001)   Seconds in section "INITIALISE_VARIA    [THE_MAIN_LOOP]":
(PID.TID 0000.0001)           User time:  0.22000000000000003
(PID.TID 0000.0001)         System time:  1.99999999999999969E-002
(PID.TID 0000.0001)     Wall clock time:  0.23217296600341797
(PID.TID 0000.0001)          No. starts:           1
(PID.TID 0000.0001)           No. stops:           1
(PID.TID 0000.0001)   Seconds in section "MAIN LOOP           [THE_MAIN_LOOP]":
(PID.TID 0000.0001)           User time:   24.940000000000001
(PID.TID 0000.0001)         System time:  2.99999999999999989E-002
(PID.TID 0000.0001)     Wall clock time:   25.035273790359497
(PID.TID 0000.0001)          No. starts:           1
(PID.TID 0000.0001)           No. stops:           1
(PID.TID 0000.0001)   Seconds in section "FORWARD_STEP        [THE_MAIN_LOOP]":
(PID.TID 0000.0001)           User time:   24.940000000000026
(PID.TID 0000.0001)         System time:  2.99999999999999989E-002
(PID.TID 0000.0001)     Wall clock time:   25.034889459609985
(PID.TID 0000.0001)          No. starts:          40
(PID.TID 0000.0001)           No. stops:          40
(PID.TID 0000.0001)   Seconds in section "LOAD_FIELDS_DRIVER  [FORWARD_STEP]":
(PID.TID 0000.0001)           User time:  1.00000000000015632E-002
(PID.TID 0000.0001)         System time:   0.0000000000000000
(PID.TID 0000.0001)     Wall clock time:  1.05214118957519531E-002
(PID.TID 0000.0001)          No. starts:          40
(PID.TID 0000.0001)           No. stops:          40
(PID.TID 0000.0001)   Seconds in section "EXTERNAL_FLDS_LOAD [LOAD_FLDS_DRIVER]":
(PID.TID 0000.0001)           User time:   0.0000000000000000
(PID.TID 0000.0001)         System time:   0.0000000000000000
(PID.TID 0000.0001)     Wall clock time:  3.74078750610351563E-004
(PID.TID 0000.0001)          No. starts:          40
(PID.TID 0000.0001)           No. stops:          40
(PID.TID 0000.0001)   Seconds in section "CPL_EXPORT-IMPORT  [FORWARD_STEP]":
(PID.TID 0000.0001)           User time:  0.30000000000000071
(PID.TID 0000.0001)         System time:  1.00000000000000019E-002
(PID.TID 0000.0001)     Wall clock time:  0.31185483932495117
(PID.TID 0000.0001)          No. starts:          40
(PID.TID 0000.0001)           No. stops:          40
(PID.TID 0000.0001)   Seconds in section "DO_ATMOSPHERIC_PHYS [FORWARD_STEP]":
(PID.TID 0000.0001)           User time:   3.8000000000000007
(PID.TID 0000.0001)         System time:   0.0000000000000000
(PID.TID 0000.0001)     Wall clock time:   3.8154835700988770
(PID.TID 0000.0001)          No. starts:          40
(PID.TID 0000.0001)           No. stops:          40
(PID.TID 0000.0001)   Seconds in section "AIM_DO_PHYSICS [DO_ATMOSPHERIC_PHYS]":
(PID.TID 0000.0001)           User time:   3.8000000000000007
(PID.TID 0000.0001)         System time:   0.0000000000000000
(PID.TID 0000.0001)     Wall clock time:   3.8146739006042480
(PID.TID 0000.0001)          No. starts:          40
(PID.TID 0000.0001)           No. stops:          40
(PID.TID 0000.0001)   Seconds in section "DO_OCEANIC_PHYS     [FORWARD_STEP]":
(PID.TID 0000.0001)           User time:   0.0000000000000000
(PID.TID 0000.0001)         System time:   0.0000000000000000
(PID.TID 0000.0001)     Wall clock time:  1.87420845031738281E-003
(PID.TID 0000.0001)          No. starts:          40
(PID.TID 0000.0001)           No. stops:          40
(PID.TID 0000.0001)   Seconds in section "DYNAMICS            [FORWARD_STEP]":
(PID.TID 0000.0001)           User time:   5.5699999999999967
(PID.TID 0000.0001)         System time:   0.0000000000000000
(PID.TID 0000.0001)     Wall clock time:   5.5897285938262939
(PID.TID 0000.0001)          No. starts:          40
(PID.TID 0000.0001)           No. stops:          40
(PID.TID 0000.0001)   Seconds in section "UPDATE_R_STAR       [FORWARD_STEP]":
(PID.TID 0000.0001)           User time:  0.33000000000000185
(PID.TID 0000.0001)         System time:   0.0000000000000000
(PID.TID 0000.0001)     Wall clock time:  0.31351232528686523
(PID.TID 0000.0001)          No. starts:          40
(PID.TID 0000.0001)           No. stops:          40
(PID.TID 0000.0001)   Seconds in section "UPDATE_CG2D         [FORWARD_STEP]":
(PID.TID 0000.0001)           User time:  0.17999999999999972
(PID.TID 0000.0001)         System time:   0.0000000000000000
(PID.TID 0000.0001)     Wall clock time:  0.20760679244995117
(PID.TID 0000.0001)          No. starts:          40
(PID.TID 0000.0001)           No. stops:          40
(PID.TID 0000.0001)   Seconds in section "SOLVE_FOR_PRESSURE  [FORWARD_STEP]":
(PID.TID 0000.0001)           User time:   1.9499999999999993
(PID.TID 0000.0001)         System time:   0.0000000000000000
(PID.TID 0000.0001)     Wall clock time:   1.9543035030364990
(PID.TID 0000.0001)          No. starts:          40
(PID.TID 0000.0001)           No. stops:          40
(PID.TID 0000.0001)   Seconds in section "MOM_CORRECTION_STEP [FORWARD_STEP]":
(PID.TID 0000.0001)           User time:   1.9900000000000020
(PID.TID 0000.0001)         System time:   0.0000000000000000
(PID.TID 0000.0001)     Wall clock time:   1.9636528491973877
(PID.TID 0000.0001)          No. starts:          40
(PID.TID 0000.0001)           No. stops:          40
(PID.TID 0000.0001)   Seconds in section "SHAP_FILT_UV       [MOM_CORR_STEP]":
(PID.TID 0000.0001)           User time:   1.8099999999999987
(PID.TID 0000.0001)         System time:   0.0000000000000000
(PID.TID 0000.0001)     Wall clock time:   1.7927041053771973
(PID.TID 0000.0001)          No. starts:          40
(PID.TID 0000.0001)           No. stops:          40
(PID.TID 0000.0001)   Seconds in section "INTEGR_CONTINUITY   [FORWARD_STEP]":
(PID.TID 0000.0001)           User time:  0.47999999999999687
(PID.TID 0000.0001)         System time:   0.0000000000000000
(PID.TID 0000.0001)     Wall clock time:  0.50617504119873047
(PID.TID 0000.0001)          No. starts:          40
(PID.TID 0000.0001)           No. stops:          40
(PID.TID 0000.0001)   Seconds in section "CALC_R_STAR         [FORWARD_STEP]":
(PID.TID 0000.0001)           User time:  0.19000000000000838
(PID.TID 0000.0001)         System time:   0.0000000000000000
(PID.TID 0000.0001)     Wall clock time:  0.18474674224853516
(PID.TID 0000.0001)          No. starts:          40
(PID.TID 0000.0001)           No. stops:          40
(PID.TID 0000.0001)   Seconds in section "BLOCKING_EXCHANGES  [FORWARD_STEP]":
(PID.TID 0000.0001)           User time:  0.14999999999999503
(PID.TID 0000.0001)         System time:   0.0000000000000000
(PID.TID 0000.0001)     Wall clock time:  0.14789319038391113
(PID.TID 0000.0001)          No. starts:          80
(PID.TID 0000.0001)           No. stops:          80
(PID.TID 0000.0001)   Seconds in section "THERMODYNAMICS      [FORWARD_STEP]":
(PID.TID 0000.0001)           User time:   3.2499999999999858
(PID.TID 0000.0001)         System time:   0.0000000000000000
(PID.TID 0000.0001)     Wall clock time:   3.2753555774688721
(PID.TID 0000.0001)          No. starts:          40
(PID.TID 0000.0001)           No. stops:          40
(PID.TID 0000.0001)   Seconds in section "TRC_CORRECTION_STEP [FORWARD_STEP]":
(PID.TID 0000.0001)           User time:   2.0400000000000098
(PID.TID 0000.0001)         System time:   0.0000000000000000
(PID.TID 0000.0001)     Wall clock time:   2.0521755218505859
(PID.TID 0000.0001)          No. starts:          40
(PID.TID 0000.0001)           No. stops:          40
(PID.TID 0000.0001)   Seconds in section "SHAP_FILT_TS       [TRC_CORR_STEP]":
(PID.TID 0000.0001)           User time:   1.9600000000000080
(PID.TID 0000.0001)         System time:   0.0000000000000000
(PID.TID 0000.0001)     Wall clock time:   1.9787907600402832
(PID.TID 0000.0001)          No. starts:          40
(PID.TID 0000.0001)           No. stops:          40
(PID.TID 0000.0001)   Seconds in section "DO_STATEVARS_TAVE   [FORWARD_STEP]":
(PID.TID 0000.0001)           User time:   1.3799999999999955
(PID.TID 0000.0001)         System time:   0.0000000000000000
(PID.TID 0000.0001)     Wall clock time:   1.3592660427093506
(PID.TID 0000.0001)          No. starts:          40
(PID.TID 0000.0001)           No. stops:          40
(PID.TID 0000.0001)   Seconds in section "MONITOR             [FORWARD_STEP]":
(PID.TID 0000.0001)           User time:   2.9100000000000037
(PID.TID 0000.0001)         System time:   0.0000000000000000
(PID.TID 0000.0001)     Wall clock time:   2.9003093242645264
(PID.TID 0000.0001)          No. starts:          40
(PID.TID 0000.0001)           No. stops:          40
(PID.TID 0000.0001)   Seconds in section "DO_THE_MODEL_IO     [FORWARD_STEP]":
(PID.TID 0000.0001)           User time:  0.37000000000000099
(PID.TID 0000.0001)         System time:  1.00000000000000019E-002
(PID.TID 0000.0001)     Wall clock time:  0.38776087760925293
(PID.TID 0000.0001)          No. starts:          40
(PID.TID 0000.0001)           No. stops:          40
(PID.TID 0000.0001)   Seconds in section "DO_WRITE_PICKUP     [FORWARD_STEP]":
(PID.TID 0000.0001)           User time:  2.99999999999975842E-002
(PID.TID 0000.0001)         System time:  9.99999999999999500E-003
(PID.TID 0000.0001)     Wall clock time:  4.47392463684082031E-002
(PID.TID 0000.0001)          No. starts:          40
(PID.TID 0000.0001)           No. stops:          40
(PID.TID 0000.0001) // ======================================================
(PID.TID 0000.0001) // Tile <-> Tile communication statistics
(PID.TID 0000.0001) // ======================================================
(PID.TID 0000.0001) // o Tile number: 000001
(PID.TID 0000.0001) //         No. X exchanges =              0
(PID.TID 0000.0001) //            Max. X spins =              0
(PID.TID 0000.0001) //            Min. X spins =     1000000000
(PID.TID 0000.0001) //          Total. X spins =              0
(PID.TID 0000.0001) //            Avg. X spins =       0.00E+00
(PID.TID 0000.0001) //         No. Y exchanges =              0
(PID.TID 0000.0001) //            Max. Y spins =              0
(PID.TID 0000.0001) //            Min. Y spins =     1000000000
(PID.TID 0000.0001) //          Total. Y spins =              0
(PID.TID 0000.0001) //            Avg. Y spins =       0.00E+00
(PID.TID 0000.0001) // o Tile number: 000002
(PID.TID 0000.0001) //         No. X exchanges =              0
(PID.TID 0000.0001) //            Max. X spins =              0
(PID.TID 0000.0001) //            Min. X spins =     1000000000
(PID.TID 0000.0001) //          Total. X spins =              0
(PID.TID 0000.0001) //            Avg. X spins =       0.00E+00
(PID.TID 0000.0001) //         No. Y exchanges =              0
(PID.TID 0000.0001) //            Max. Y spins =              0
(PID.TID 0000.0001) //            Min. Y spins =     1000000000
(PID.TID 0000.0001) //          Total. Y spins =              0
(PID.TID 0000.0001) //            Avg. Y spins =       0.00E+00
(PID.TID 0000.0001) // o Tile number: 000003
(PID.TID 0000.0001) //         No. X exchanges =              0
(PID.TID 0000.0001) //            Max. X spins =              0
(PID.TID 0000.0001) //            Min. X spins =     1000000000
(PID.TID 0000.0001) //          Total. X spins =              0
(PID.TID 0000.0001) //            Avg. X spins =       0.00E+00
(PID.TID 0000.0001) //         No. Y exchanges =              0
(PID.TID 0000.0001) //            Max. Y spins =              0
(PID.TID 0000.0001) //            Min. Y spins =     1000000000
(PID.TID 0000.0001) //          Total. Y spins =              0
(PID.TID 0000.0001) //            Avg. Y spins =       0.00E+00
(PID.TID 0000.0001) // o Tile number: 000004
(PID.TID 0000.0001) //         No. X exchanges =              0
(PID.TID 0000.0001) //            Max. X spins =              0
(PID.TID 0000.0001) //            Min. X spins =     1000000000
(PID.TID 0000.0001) //          Total. X spins =              0
(PID.TID 0000.0001) //            Avg. X spins =       0.00E+00
(PID.TID 0000.0001) //         No. Y exchanges =              0
(PID.TID 0000.0001) //            Max. Y spins =              0
(PID.TID 0000.0001) //            Min. Y spins =     1000000000
(PID.TID 0000.0001) //          Total. Y spins =              0
(PID.TID 0000.0001) //            Avg. Y spins =       0.00E+00
(PID.TID 0000.0001) // o Tile number: 000005
(PID.TID 0000.0001) //         No. X exchanges =              0
(PID.TID 0000.0001) //            Max. X spins =              0
(PID.TID 0000.0001) //            Min. X spins =     1000000000
(PID.TID 0000.0001) //          Total. X spins =              0
(PID.TID 0000.0001) //            Avg. X spins =       0.00E+00
(PID.TID 0000.0001) //         No. Y exchanges =              0
(PID.TID 0000.0001) //            Max. Y spins =              0
(PID.TID 0000.0001) //            Min. Y spins =     1000000000
(PID.TID 0000.0001) //          Total. Y spins =              0
(PID.TID 0000.0001) //            Avg. Y spins =       0.00E+00
(PID.TID 0000.0001) // o Tile number: 000006
(PID.TID 0000.0001) //         No. X exchanges =              0
(PID.TID 0000.0001) //            Max. X spins =              0
(PID.TID 0000.0001) //            Min. X spins =     1000000000
(PID.TID 0000.0001) //          Total. X spins =              0
(PID.TID 0000.0001) //            Avg. X spins =       0.00E+00
(PID.TID 0000.0001) //         No. Y exchanges =              0
(PID.TID 0000.0001) //            Max. Y spins =              0
(PID.TID 0000.0001) //            Min. Y spins =     1000000000
(PID.TID 0000.0001) //          Total. Y spins =              0
(PID.TID 0000.0001) //            Avg. Y spins =       0.00E+00
(PID.TID 0000.0001) // o Thread number: 000001
(PID.TID 0000.0001) //            No. barriers =          30782
(PID.TID 0000.0001) //      Max. barrier spins =              1
(PID.TID 0000.0001) //      Min. barrier spins =              1
(PID.TID 0000.0001) //     Total barrier spins =          30782
(PID.TID 0000.0001) //      Avg. barrier spins =       1.00E+00
PROGRAM MAIN: Execution ended Normally
