(PID.TID 0000.0001) 
(PID.TID 0000.0001) // ======================================================
(PID.TID 0000.0001) //                      MITgcm UV
(PID.TID 0000.0001) //                      =========
(PID.TID 0000.0001) // ======================================================
(PID.TID 0000.0001) // execution environment starting up...
(PID.TID 0000.0001) 
(PID.TID 0000.0001) // MITgcmUV version:  checkpoint57c_pre
(PID.TID 0000.0001) // Build user:        jmc
(PID.TID 0000.0001) // Build host:        faulks
(PID.TID 0000.0001) // Build date:        Thu Jan 27 09:39:38 EST 2005
(PID.TID 0000.0001) 
(PID.TID 0000.0001) // =======================================================
(PID.TID 0000.0001) // Execution Environment parameter file "eedata"
(PID.TID 0000.0001) // =======================================================
(PID.TID 0000.0001) ># Example "eedata" file
(PID.TID 0000.0001) ># Lines beginning "#" are comments
(PID.TID 0000.0001) ># nTx - No. threads per process in X
(PID.TID 0000.0001) ># nTy - No. threads per process in Y
(PID.TID 0000.0001) > &EEPARMS
(PID.TID 0000.0001) > &
(PID.TID 0000.0001) ># Note: Some systems use & as the
(PID.TID 0000.0001) ># namelist terminator. Other systems
(PID.TID 0000.0001) ># use a / character (as shown here).
(PID.TID 0000.0001) 
(PID.TID 0000.0001) // =======================================================
(PID.TID 0000.0001) // Computational Grid Specification ( see files "SIZE.h" )
(PID.TID 0000.0001) //                                  ( and "eedata"       )
(PID.TID 0000.0001) // =======================================================
(PID.TID 0000.0001)      nPx =    1 ; /* No. processes in X */
(PID.TID 0000.0001)      nPy =    1 ; /* No. processes in Y */
(PID.TID 0000.0001)      nSx =    2 ; /* No. tiles in X per process */
(PID.TID 0000.0001)      nSy =    2 ; /* No. tiles in Y per process */
(PID.TID 0000.0001)      sNx =   30 ; /* Tile size in X */
(PID.TID 0000.0001)      sNy =   30 ; /* Tile size in Y */
(PID.TID 0000.0001)      OLx =    2 ; /* Tile overlap distance in X */
(PID.TID 0000.0001)      OLy =    2 ; /* Tile overlap distance in Y */
(PID.TID 0000.0001)      nTx =    1 ; /* No. threads in X per process */
(PID.TID 0000.0001)      nTy =    1 ; /* No. threads in Y per process */
(PID.TID 0000.0001)       Nr =    1 ; /* No. levels in the vertical   */
(PID.TID 0000.0001)       nX =   60 ; /* Total domain size in X ( = nPx*nSx*sNx ) */
(PID.TID 0000.0001)       nY =   60 ; /* Total domain size in Y ( = nPy*nSy*sNy ) */
(PID.TID 0000.0001)   nTiles =    4 ; /* Total no. tiles per process ( = nSx*nSy ) */
(PID.TID 0000.0001)   nProcs =    1 ; /* Total no. processes ( = nPx*nPy ) */
(PID.TID 0000.0001) nThreads =    1 ; /* Total no. threads per process ( = nTx*nTy ) */
(PID.TID 0000.0001) usingMPI =    F ; /* Flag used to control whether MPI is in use */
(PID.TID 0000.0001)                   /*  note: To execute a program with MPI calls */
(PID.TID 0000.0001)                   /*  it must be launched appropriately e.g     */
(PID.TID 0000.0001)                   /*  "mpirun -np 64 ......"                    */
(PID.TID 0000.0001) useCoupler=   F ; /* Flag used to control communications with */
(PID.TID 0000.0001)                   /*  other model components, through a coupler */
(PID.TID 0000.0001) 
(PID.TID 0000.0001) // ======================================================
(PID.TID 0000.0001) // Mapping of tiles to threads
(PID.TID 0000.0001) // ======================================================
(PID.TID 0000.0001) // -o- Thread   1, tiles (   1:   2,   1:   2)
(PID.TID 0000.0001) 
(PID.TID 0000.0001) // ======================================================
(PID.TID 0000.0001) // Tile <-> Tile connectvity table
(PID.TID 0000.0001) // ======================================================
(PID.TID 0000.0001) // Tile number: 000001 (process no. = 000001)
(PID.TID 0000.0001) //        WEST: Tile = 000002, Process = 000001, Comm = put
(PID.TID 0000.0001) //                bi = 000002, bj = 000001
(PID.TID 0000.0001) //        EAST: Tile = 000002, Process = 000001, Comm = put
(PID.TID 0000.0001) //                bi = 000002, bj = 000001
(PID.TID 0000.0001) //       SOUTH: Tile = 000003, Process = 000001, Comm = put
(PID.TID 0000.0001) //                bi = 000001, bj = 000002
(PID.TID 0000.0001) //       NORTH: Tile = 000003, Process = 000001, Comm = put
(PID.TID 0000.0001) //                bi = 000001, bj = 000002
(PID.TID 0000.0001) // Tile number: 000002 (process no. = 000001)
(PID.TID 0000.0001) //        WEST: Tile = 000001, Process = 000001, Comm = put
(PID.TID 0000.0001) //                bi = 000001, bj = 000001
(PID.TID 0000.0001) //        EAST: Tile = 000001, Process = 000001, Comm = put
(PID.TID 0000.0001) //                bi = 000001, bj = 000001
(PID.TID 0000.0001) //       SOUTH: Tile = 000004, Process = 000001, Comm = put
(PID.TID 0000.0001) //                bi = 000002, bj = 000002
(PID.TID 0000.0001) //       NORTH: Tile = 000004, Process = 000001, Comm = put
(PID.TID 0000.0001) //                bi = 000002, bj = 000002
(PID.TID 0000.0001) // Tile number: 000003 (process no. = 000001)
(PID.TID 0000.0001) //        WEST: Tile = 000004, Process = 000001, Comm = put
(PID.TID 0000.0001) //                bi = 000002, bj = 000002
(PID.TID 0000.0001) //        EAST: Tile = 000004, Process = 000001, Comm = put
(PID.TID 0000.0001) //                bi = 000002, bj = 000002
(PID.TID 0000.0001) //       SOUTH: Tile = 000001, Process = 000001, Comm = put
(PID.TID 0000.0001) //                bi = 000001, bj = 000001
(PID.TID 0000.0001) //       NORTH: Tile = 000001, Process = 000001, Comm = put
(PID.TID 0000.0001) //                bi = 000001, bj = 000001
(PID.TID 0000.0001) // Tile number: 000004 (process no. = 000001)
(PID.TID 0000.0001) //        WEST: Tile = 000003, Process = 000001, Comm = put
(PID.TID 0000.0001) //                bi = 000001, bj = 000002
(PID.TID 0000.0001) //        EAST: Tile = 000003, Process = 000001, Comm = put
(PID.TID 0000.0001) //                bi = 000001, bj = 000002
(PID.TID 0000.0001) //       SOUTH: Tile = 000002, Process = 000001, Comm = put
(PID.TID 0000.0001) //                bi = 000002, bj = 000001
(PID.TID 0000.0001) //       NORTH: Tile = 000002, Process = 000001, Comm = put
(PID.TID 0000.0001) //                bi = 000002, bj = 000001
(PID.TID 0000.0001) 
(PID.TID 0000.0001) // =======================================================
(PID.TID 0000.0001) // Model parameter file "data"
(PID.TID 0000.0001) // =======================================================
(PID.TID 0000.0001) ># Model parameters
(PID.TID 0000.0001) ># Continuous equation parameters
(PID.TID 0000.0001) > &PARM01
(PID.TID 0000.0001) > tRef=20.,
(PID.TID 0000.0001) > sRef=10.,
(PID.TID 0000.0001) > viscAz=1.E-2,
(PID.TID 0000.0001) > viscAh=4.E2,
(PID.TID 0000.0001) > diffKhT=4.E2,
(PID.TID 0000.0001) > diffKzT=1.E-2,
(PID.TID 0000.0001) > beta=1.E-11,
(PID.TID 0000.0001) > tAlpha=2.E-4,
(PID.TID 0000.0001) > sBeta =0.,
(PID.TID 0000.0001) > gravity=9.81,
(PID.TID 0000.0001) > gBaro=9.81,
(PID.TID 0000.0001) > rigidLid=.FALSE.,
(PID.TID 0000.0001) > implicitFreeSurface=.TRUE.,
(PID.TID 0000.0001) > eosType='LINEAR',
(PID.TID 0000.0001) > readBinaryPrec=64,
(PID.TID 0000.0001) > &
(PID.TID 0000.0001) ># Elliptic solver parameters
(PID.TID 0000.0001) > &PARM02
(PID.TID 0000.0001) > cg2dMaxIters=1000,
(PID.TID 0000.0001) > cg2dTargetResidual=1.E-7,
(PID.TID 0000.0001) > &
(PID.TID 0000.0001) ># Time stepping parameters
(PID.TID 0000.0001) > &PARM03
(PID.TID 0000.0001) > startTime=0,
(PID.TID 0000.0001) >#endTime=311040000,
(PID.TID 0000.0001) > endTime=12000.0,
(PID.TID 0000.0001) > deltaTmom=1200.0,
(PID.TID 0000.0001) > deltaTtracer=1200.0,
(PID.TID 0000.0001) > abEps=0.1,
(PID.TID 0000.0001) > pChkptFreq=2592000.0,
(PID.TID 0000.0001) > chkptFreq=120000.0,
(PID.TID 0000.0001) > dumpFreq=2592000.0,
(PID.TID 0000.0001) > monitorFreq=1.,
(PID.TID 0000.0001) > &
(PID.TID 0000.0001) ># Gridding parameters
(PID.TID 0000.0001) > &PARM04
(PID.TID 0000.0001) > usingCartesianGrid=.TRUE.,
(PID.TID 0000.0001) > usingSphericalPolarGrid=.FALSE.,
(PID.TID 0000.0001) > delX=60*20E3,
(PID.TID 0000.0001) > delY=60*20E3,
(PID.TID 0000.0001) > delZ=5000.,
(PID.TID 0000.0001) > &
(PID.TID 0000.0001) > &PARM05
(PID.TID 0000.0001) > bathyFile='topog.box',
(PID.TID 0000.0001) > hydrogThetaFile=,
(PID.TID 0000.0001) > hydrogSaltFile=,
(PID.TID 0000.0001) > zonalWindFile='windx.sin_y',
(PID.TID 0000.0001) > meridWindFile=,
(PID.TID 0000.0001) > &
(PID.TID 0000.0001) 
(PID.TID 0000.0001) S/R INI_PARMS ; starts to read PARM01
(PID.TID 0000.0001) S/R INI_PARMS ; read PARM01 : OK
(PID.TID 0000.0001) S/R INI_PARMS ; starts to read PARM02
(PID.TID 0000.0001) S/R INI_PARMS ; read PARM02 : OK
(PID.TID 0000.0001) S/R INI_PARMS ; starts to read PARM03
(PID.TID 0000.0001) S/R INI_PARMS ; read PARM03 : OK
(PID.TID 0000.0001) S/R INI_PARMS ; starts to read PARM04
(PID.TID 0000.0001) S/R INI_PARMS ; read PARM04 : OK
(PID.TID 0000.0001) S/R INI_PARMS ; starts to read PARM05
(PID.TID 0000.0001) S/R INI_PARMS ; read PARM05 : OK
(PID.TID 0000.0001)  PACKAGES_BOOT: opening data.pkg
(PID.TID 0000.0001)  OPEN_COPY_DATA_FILE: opening file data.pkg
(PID.TID 0000.0001) // =======================================================
(PID.TID 0000.0001) // Parameter file "data.pkg"
(PID.TID 0000.0001) // =======================================================
(PID.TID 0000.0001) ># Packages
(PID.TID 0000.0001) > &PACKAGES
(PID.TID 0000.0001) > useMNC=.TRUE.,
(PID.TID 0000.0001) > &
(PID.TID 0000.0001) 
(PID.TID 0000.0001)  PACKAGES_BOOT: finished reading data.pkg
(PID.TID 0000.0001)  MNC_READPARMS: opening file 'data.mnc'
(PID.TID 0000.0001) // =======================================================
(PID.TID 0000.0001) // Parameter file "data.mnc"
(PID.TID 0000.0001) // =======================================================
(PID.TID 0000.0001) ># Example "data.mnc" file
(PID.TID 0000.0001) ># Lines beginning "#" are comments
(PID.TID 0000.0001) > &MNC_01
(PID.TID 0000.0001) ># mnc_echo_gvtypes=.FALSE.,
(PID.TID 0000.0001) ># mnc_use_indir=.FALSE.,
(PID.TID 0000.0001) > mnc_use_outdir=.TRUE.,
(PID.TID 0000.0001) > mnc_outdir_str='mnc_test_',
(PID.TID 0000.0001) > mnc_outdir_date=.TRUE.,
(PID.TID 0000.0001) ># monitor_mnc=.FALSE.,
(PID.TID 0000.0001) > snapshot_mnc=.TRUE.,
(PID.TID 0000.0001) > timeave_mnc=.TRUE.,
(PID.TID 0000.0001) > pickup_write_mnc=.TRUE.,
(PID.TID 0000.0001) > &
(PID.TID 0000.0001) ># Note: Some systems use & as the
(PID.TID 0000.0001) ># namelist terminator. Other systems
(PID.TID 0000.0001) ># use a / character (as shown here).
(PID.TID 0000.0001) 
(PID.TID 0000.0001)  MNC_READPARMS: finished reading data.mnc
(PID.TID 0000.0001) %MON XC_max                       =   1.1900000000000E+06
(PID.TID 0000.0001) %MON XC_min                       =   1.0000000000000E+04
(PID.TID 0000.0001) %MON XC_mean                      =   6.0000000000000E+05
(PID.TID 0000.0001) %MON XC_sd                        =   3.4636204564973E+05
(PID.TID 0000.0001) %MON XG_max                       =   1.1800000000000E+06
(PID.TID 0000.0001) %MON XG_min                       =   2.0000000000000E+04
(PID.TID 0000.0001) %MON XG_mean                      =   6.0000000000000E+05
(PID.TID 0000.0001) %MON XG_sd                        =   3.4058772731853E+05
(PID.TID 0000.0001) %MON DXC_max                      =   2.0000000000000E+04
(PID.TID 0000.0001) %MON DXC_min                      =   2.0000000000000E+04
(PID.TID 0000.0001) %MON DXC_mean                     =   2.0000000000000E+04
(PID.TID 0000.0001) %MON DXC_sd                       =   0.0000000000000E+00
(PID.TID 0000.0001) %MON DXF_max                      =   2.0000000000000E+04
(PID.TID 0000.0001) %MON DXF_min                      =   2.0000000000000E+04
(PID.TID 0000.0001) %MON DXF_mean                     =   2.0000000000000E+04
(PID.TID 0000.0001) %MON DXF_sd                       =   0.0000000000000E+00
(PID.TID 0000.0001) %MON DXG_max                      =   2.0000000000000E+04
(PID.TID 0000.0001) %MON DXG_min                      =   2.0000000000000E+04
(PID.TID 0000.0001) %MON DXG_mean                     =   2.0000000000000E+04
(PID.TID 0000.0001) %MON DXG_sd                       =   0.0000000000000E+00
(PID.TID 0000.0001) %MON DXV_max                      =   2.0000000000000E+04
(PID.TID 0000.0001) %MON DXV_min                      =   2.0000000000000E+04
(PID.TID 0000.0001) %MON DXV_mean                     =   2.0000000000000E+04
(PID.TID 0000.0001) %MON DXV_sd                       =   0.0000000000000E+00
(PID.TID 0000.0001) %MON YC_max                       =   1.1900000000000E+06
(PID.TID 0000.0001) %MON YC_min                       =   1.0000000000000E+04
(PID.TID 0000.0001) %MON YC_mean                      =   6.0000000000000E+05
(PID.TID 0000.0001) %MON YC_sd                        =   3.4636204564973E+05
(PID.TID 0000.0001) %MON YG_max                       =   1.1800000000000E+06
(PID.TID 0000.0001) %MON YG_min                       =   2.0000000000000E+04
(PID.TID 0000.0001) %MON YG_mean                      =   6.0000000000000E+05
(PID.TID 0000.0001) %MON YG_sd                        =   3.4058772731853E+05
(PID.TID 0000.0001) %MON DYC_max                      =   2.0000000000000E+04
(PID.TID 0000.0001) %MON DYC_min                      =   2.0000000000000E+04
(PID.TID 0000.0001) %MON DYC_mean                     =   2.0000000000000E+04
(PID.TID 0000.0001) %MON DYC_sd                       =   0.0000000000000E+00
(PID.TID 0000.0001) %MON DYF_max                      =   2.0000000000000E+04
(PID.TID 0000.0001) %MON DYF_min                      =   2.0000000000000E+04
(PID.TID 0000.0001) %MON DYF_mean                     =   2.0000000000000E+04
(PID.TID 0000.0001) %MON DYF_sd                       =   0.0000000000000E+00
(PID.TID 0000.0001) %MON DYG_max                      =   2.0000000000000E+04
(PID.TID 0000.0001) %MON DYG_min                      =   2.0000000000000E+04
(PID.TID 0000.0001) %MON DYG_mean                     =   2.0000000000000E+04
(PID.TID 0000.0001) %MON DYG_sd                       =   0.0000000000000E+00
(PID.TID 0000.0001) %MON DYU_max                      =   2.0000000000000E+04
(PID.TID 0000.0001) %MON DYU_min                      =   2.0000000000000E+04
(PID.TID 0000.0001) %MON DYU_mean                     =   2.0000000000000E+04
(PID.TID 0000.0001) %MON DYU_sd                       =   0.0000000000000E+00
(PID.TID 0000.0001) %MON RA_max                       =   4.0000000000000E+08
(PID.TID 0000.0001) %MON RA_min                       =   4.0000000000000E+08
(PID.TID 0000.0001) %MON RA_mean                      =   4.0000000000000E+08
(PID.TID 0000.0001) %MON RA_sd                        =   0.0000000000000E+00
(PID.TID 0000.0001) %MON RAW_max                      =   4.0000000000000E+08
(PID.TID 0000.0001) %MON RAW_min                      =   4.0000000000000E+08
(PID.TID 0000.0001) %MON RAW_mean                     =   4.0000000000000E+08
(PID.TID 0000.0001) %MON RAW_sd                       =   0.0000000000000E+00
(PID.TID 0000.0001) %MON RAS_max                      =   4.0000000000000E+08
(PID.TID 0000.0001) %MON RAS_min                      =   4.0000000000000E+08
(PID.TID 0000.0001) %MON RAS_mean                     =   4.0000000000000E+08
(PID.TID 0000.0001) %MON RAS_sd                       =   0.0000000000000E+00
(PID.TID 0000.0001) %MON RAZ_max                      =   4.0000000000000E+08
(PID.TID 0000.0001) %MON RAZ_min                      =   4.0000000000000E+08
(PID.TID 0000.0001) %MON RAZ_mean                     =   4.0000000000000E+08
(PID.TID 0000.0001) %MON RAZ_sd                       =   0.0000000000000E+00
(PID.TID 0000.0001)  MDSREADFIELD: opening global file: topog.box
(PID.TID 0000.0001) // =======================================================
(PID.TID 0000.0001) // Field Model R_low (ini_masks_etc) at iteration          1
(PID.TID 0000.0001) // CMIN =         -5.000000000000000E+03
(PID.TID 0000.0001) // CMAX =         -5.000000000000000E+03
(PID.TID 0000.0001) // CINT =          0.000000000000000E+00
(PID.TID 0000.0001) // SYMBOLS (CMIN->CMAX): -abcdefghijklmnopqrstuvwxyz+
(PID.TID 0000.0001) //                  0.0: .
(PID.TID 0000.0001) // RANGE I (Lo:Hi:Step):(  -1:  62:   1)
(PID.TID 0000.0001) // RANGE J (Lo:Hi:Step):(  62:  -1:  -1)
(PID.TID 0000.0001) // RANGE K (Lo:Hi:Step):(   1:   1:   1)
(PID.TID 0000.0001) // =======================================================
(PID.TID 0000.0001) // =======================================================
(PID.TID 0000.0001) // END OF FIELD                                          =
(PID.TID 0000.0001) // =======================================================
(PID.TID 0000.0001) 
(PID.TID 0000.0001) // =======================================================
(PID.TID 0000.0001) // Field Model Ro_surf (ini_masks_etc) at iteration          1
(PID.TID 0000.0001) // CMIN =          1.000000000000000E+32
(PID.TID 0000.0001) // CMAX =         -1.000000000000000E+32
(PID.TID 0000.0001) // CINT =          0.000000000000000E+00
(PID.TID 0000.0001) // SYMBOLS (CMIN->CMAX): -abcdefghijklmnopqrstuvwxyz+
(PID.TID 0000.0001) //                  0.0: .
(PID.TID 0000.0001) // RANGE I (Lo:Hi:Step):(  -1:  62:   1)
(PID.TID 0000.0001) // RANGE J (Lo:Hi:Step):(  62:  -1:  -1)
(PID.TID 0000.0001) // RANGE K (Lo:Hi:Step):(   1:   1:   1)
(PID.TID 0000.0001) // =======================================================
(PID.TID 0000.0001) // =======================================================
(PID.TID 0000.0001) // END OF FIELD                                          =
(PID.TID 0000.0001) // =======================================================
(PID.TID 0000.0001) 
(PID.TID 0000.0001) // =======================================================
(PID.TID 0000.0001) // Field hFacC at iteration          1
(PID.TID 0000.0001) // CMIN =          1.000000000000000E+00
(PID.TID 0000.0001) // CMAX =          1.000000000000000E+00
(PID.TID 0000.0001) // CINT =          0.000000000000000E+00
(PID.TID 0000.0001) // SYMBOLS (CMIN->CMAX): -abcdefghijklmnopqrstuvwxyz+
(PID.TID 0000.0001) //                  0.0: .
(PID.TID 0000.0001) // RANGE I (Lo:Hi:Step):(  -1:  62:   1)
(PID.TID 0000.0001) // RANGE J (Lo:Hi:Step):(  62:  -1:  -1)
(PID.TID 0000.0001) // RANGE K (Lo:Hi:Step):(   1:   1:   1)
(PID.TID 0000.0001) // =======================================================
(PID.TID 0000.0001) // =======================================================
(PID.TID 0000.0001) // END OF FIELD                                          =
(PID.TID 0000.0001) // =======================================================
(PID.TID 0000.0001) 
(PID.TID 0000.0001) // =======================================================
(PID.TID 0000.0001) // Field hFacW at iteration          1
(PID.TID 0000.0001) // CMIN =          1.000000000000000E+00
(PID.TID 0000.0001) // CMAX =          1.000000000000000E+00
(PID.TID 0000.0001) // CINT =          0.000000000000000E+00
(PID.TID 0000.0001) // SYMBOLS (CMIN->CMAX): -abcdefghijklmnopqrstuvwxyz+
(PID.TID 0000.0001) //                  0.0: .
(PID.TID 0000.0001) // RANGE I (Lo:Hi:Step):(  -1:  62:   1)
(PID.TID 0000.0001) // RANGE J (Lo:Hi:Step):(  62:  -1:  -1)
(PID.TID 0000.0001) // RANGE K (Lo:Hi:Step):(   1:   1:   1)
(PID.TID 0000.0001) // =======================================================
(PID.TID 0000.0001) // =======================================================
(PID.TID 0000.0001) // END OF FIELD                                          =
(PID.TID 0000.0001) // =======================================================
(PID.TID 0000.0001) 
(PID.TID 0000.0001) // =======================================================
(PID.TID 0000.0001) // Field hFacS at iteration          1
(PID.TID 0000.0001) // CMIN =          1.000000000000000E+00
(PID.TID 0000.0001) // CMAX =          1.000000000000000E+00
(PID.TID 0000.0001) // CINT =          0.000000000000000E+00
(PID.TID 0000.0001) // SYMBOLS (CMIN->CMAX): -abcdefghijklmnopqrstuvwxyz+
(PID.TID 0000.0001) //                  0.0: .
(PID.TID 0000.0001) // RANGE I (Lo:Hi:Step):(  -1:  62:   1)
(PID.TID 0000.0001) // RANGE J (Lo:Hi:Step):(  62:  -1:  -1)
(PID.TID 0000.0001) // RANGE K (Lo:Hi:Step):(   1:   1:   1)
(PID.TID 0000.0001) // =======================================================
(PID.TID 0000.0001) // =======================================================
(PID.TID 0000.0001) // END OF FIELD                                          =
(PID.TID 0000.0001) // =======================================================
(PID.TID 0000.0001) 
(PID.TID 0000.0001) 
(PID.TID 0000.0001) // ===================================
(PID.TID 0000.0001) // GAD parameters :
(PID.TID 0000.0001) // ===================================
(PID.TID 0000.0001) tempAdvScheme =   /* Temp. Horiz.Advection scheme selector */
(PID.TID 0000.0001)                       2
(PID.TID 0000.0001)     ;
(PID.TID 0000.0001) tempVertAdvScheme =   /* Temp. Vert. Advection scheme selector */
(PID.TID 0000.0001)                       2
(PID.TID 0000.0001)     ;
(PID.TID 0000.0001) tempMultiDimAdvec =   /* use Muti-Dim Advec method for Temp */
(PID.TID 0000.0001)                   F
(PID.TID 0000.0001)     ;
(PID.TID 0000.0001) tempAdamsBashforth =   /* use Adams-Bashforth time-stepping for Temp */
(PID.TID 0000.0001)                   T
(PID.TID 0000.0001)     ;
(PID.TID 0000.0001) saltAdvScheme =   /* Salt. Horiz.advection scheme selector */
(PID.TID 0000.0001)                       2
(PID.TID 0000.0001)     ;
(PID.TID 0000.0001) saltVertAdvScheme =   /* Salt. Vert. Advection scheme selector */
(PID.TID 0000.0001)                       2
(PID.TID 0000.0001)     ;
(PID.TID 0000.0001) saltMultiDimAdvec =   /* use Muti-Dim Advec method for Salt */
(PID.TID 0000.0001)                   F
(PID.TID 0000.0001)     ;
(PID.TID 0000.0001) saltAdamsBashforth =   /* use Adams-Bashforth time-stepping for Salt */
(PID.TID 0000.0001)                   T
(PID.TID 0000.0001)     ;
(PID.TID 0000.0001) // ===================================
(PID.TID 0000.0001) %MON fCori_max                    =   1.1190000000000E-04
(PID.TID 0000.0001) %MON fCori_min                    =   1.0010000000000E-04
(PID.TID 0000.0001) %MON fCori_mean                   =   1.0600000000000E-04
(PID.TID 0000.0001) %MON fCori_sd                     =   3.4636204564973E-06
(PID.TID 0000.0001) %MON fCoriG_max                   =   1.1180000000000E-04
(PID.TID 0000.0001) %MON fCoriG_min                   =   1.0000000000000E-04
(PID.TID 0000.0001) %MON fCoriG_mean                  =   1.0590000000000E-04
(PID.TID 0000.0001) %MON fCoriG_sd                    =   3.4636204564973E-06
(PID.TID 0000.0001) %MON fCoriCos_max                 =   0.0000000000000E+00
(PID.TID 0000.0001) %MON fCoriCos_min                 =   0.0000000000000E+00
(PID.TID 0000.0001) %MON fCoriCos_mean                =   0.0000000000000E+00
(PID.TID 0000.0001) %MON fCoriCos_sd                  =   0.0000000000000E+00
(PID.TID 0000.0001) // CG2D normalisation factor =          0.2000000000000000095843472E-03
(PID.TID 0000.0001) 
(PID.TID 0000.0001) CONFIG_CHECK: OK
(PID.TID 0000.0001) // =======================================================
(PID.TID 0000.0001) // Model configuration
(PID.TID 0000.0001) // =======================================================
(PID.TID 0000.0001) //
(PID.TID 0000.0001) // "Physical" paramters ( PARM01 in namelist )
(PID.TID 0000.0001) //
(PID.TID 0000.0001) buoyancyRelation = OCEANIC
(PID.TID 0000.0001) fluidIsAir  =  /* fluid major constituent is Air */
(PID.TID 0000.0001)                   F
(PID.TID 0000.0001)     ;
(PID.TID 0000.0001) fluidIsWater=  /* fuild major constituent is Water */
(PID.TID 0000.0001)                   T
(PID.TID 0000.0001)     ;
(PID.TID 0000.0001) usingPCoords =  /* use p (or p*) vertical coordinate */
(PID.TID 0000.0001)                   F
(PID.TID 0000.0001)     ;
(PID.TID 0000.0001) usingZCoords =  /* use z (or z*) vertical coordinate */
(PID.TID 0000.0001)                   T
(PID.TID 0000.0001)     ;
(PID.TID 0000.0001) tRef =   /* Reference temperature profile ( oC or oK ) */
(PID.TID 0000.0001)                 2.000000000000000E+01       /* K =  1 */
(PID.TID 0000.0001)     ;
(PID.TID 0000.0001) sRef =   /* Reference salinity profile ( ppt ) */
(PID.TID 0000.0001)                 1.000000000000000E+01       /* K =  1 */
(PID.TID 0000.0001)     ;
(PID.TID 0000.0001) viscAh =   /* Lateral eddy viscosity ( m^2/s ) */
(PID.TID 0000.0001)                 4.000000000000000E+02
(PID.TID 0000.0001)     ;
(PID.TID 0000.0001) viscAhMax =   /* Maximum lateral eddy viscosity ( m^2/s ) */
(PID.TID 0000.0001)                 1.000000000000000E+21
(PID.TID 0000.0001)     ;
(PID.TID 0000.0001) viscAhGrid =   /* Grid dependent lateral eddy viscosity ( non-dim. ) */
(PID.TID 0000.0001)                 0.000000000000000E+00
(PID.TID 0000.0001)     ;
(PID.TID 0000.0001) viscC2leith =   /* Leith harmonic viscosity factor ( non-dom. ) */
(PID.TID 0000.0001)                 0.000000000000000E+00
(PID.TID 0000.0001)     ;
(PID.TID 0000.0001) viscA4 =   /* Lateral biharmonic viscosity ( m^4/s ) */
(PID.TID 0000.0001)                 0.000000000000000E+00
(PID.TID 0000.0001)     ;
(PID.TID 0000.0001) viscA4Max =   /* Maximum biharmonic viscosity ( m^2/s ) */
(PID.TID 0000.0001)                 1.000000000000000E+21
(PID.TID 0000.0001)     ;
(PID.TID 0000.0001) viscA4Grid =   /* Grid dependent biharmonic viscosity ( non-dim. ) */
(PID.TID 0000.0001)                 0.000000000000000E+00
(PID.TID 0000.0001)     ;
(PID.TID 0000.0001) viscC4leith =   /* Leith biharmonic viscosity factor ( non-dom. ) */
(PID.TID 0000.0001)                 0.000000000000000E+00
(PID.TID 0000.0001)     ;
(PID.TID 0000.0001) no_slip_sides =  /* Viscous BCs: No-slip sides */
(PID.TID 0000.0001)                   T
(PID.TID 0000.0001)     ;
(PID.TID 0000.0001) viscAr =   /* Vertical eddy viscosity ( units of r^2/s ) */
(PID.TID 0000.0001)                 1.000000000000000E-02
(PID.TID 0000.0001)     ;
(PID.TID 0000.0001) no_slip_bottom =  /* Viscous BCs: No-slip bottom */
(PID.TID 0000.0001)                   T
(PID.TID 0000.0001)     ;
(PID.TID 0000.0001) diffKhT =   /* Laplacian diffusion of heat laterally ( m^2/s ) */
(PID.TID 0000.0001)                 4.000000000000000E+02
(PID.TID 0000.0001)     ;
(PID.TID 0000.0001) diffK4T =   /* Bihaarmonic diffusion of heat laterally ( m^4/s ) */
(PID.TID 0000.0001)                 0.000000000000000E+00
(PID.TID 0000.0001)     ;
(PID.TID 0000.0001) diffKhS =   /* Laplacian diffusion of salt laterally ( m^2/s ) */
(PID.TID 0000.0001)                 0.000000000000000E+00
(PID.TID 0000.0001)     ;
(PID.TID 0000.0001) diffK4S =   /* Bihaarmonic diffusion of salt laterally ( m^4/s ) */
(PID.TID 0000.0001)                 0.000000000000000E+00
(PID.TID 0000.0001)     ;
(PID.TID 0000.0001) diffKrNrT = /* vertical profile of vertical diffusion of Temp ( m^2/s )*/
(PID.TID 0000.0001)                 1.000000000000000E-02       /* K =  1 */
(PID.TID 0000.0001)     ;
(PID.TID 0000.0001) diffKrNrS = /* vertical profile of vertical diffusion of Salt ( m^2/s )*/
(PID.TID 0000.0001)                 0.000000000000000E+00       /* K =  1 */
(PID.TID 0000.0001)     ;
(PID.TID 0000.0001) diffKrBL79surf =   /* Surface diffusion for Bryan and Lewis 1979 ( m^2/s ) */
(PID.TID 0000.0001)                 0.000000000000000E+00
(PID.TID 0000.0001)     ;
(PID.TID 0000.0001) diffKrBL79deep =   /* Deep diffusion for Bryan and Lewis 1979 ( m^2/s ) */
(PID.TID 0000.0001)                 0.000000000000000E+00
(PID.TID 0000.0001)     ;
(PID.TID 0000.0001) diffKrBL79scl =   /* Depth scale for Bryan and Lewis 1979 ( m ) */
(PID.TID 0000.0001)                 2.000000000000000E+02
(PID.TID 0000.0001)     ;
(PID.TID 0000.0001) diffKrBL79Ho =   /* Turning depth for Bryan and Lewis 1979 ( m ) */
(PID.TID 0000.0001)                -2.000000000000000E+03
(PID.TID 0000.0001)     ;
(PID.TID 0000.0001)  Equation of State : eosType = LINEAR
(PID.TID 0000.0001) tAlpha =   /* Linear EOS thermal expansion coefficient ( 1/degree ) */
(PID.TID 0000.0001)                 2.000000000000000E-04
(PID.TID 0000.0001)     ;
(PID.TID 0000.0001) sBeta =   /* Linear EOS haline contraction coefficient ( 1/ppt ) */
(PID.TID 0000.0001)                 0.000000000000000E+00
(PID.TID 0000.0001)     ;
(PID.TID 0000.0001) rhonil =   /* Reference density ( kg/m^3 ) */
(PID.TID 0000.0001)                 9.998000000000000E+02
(PID.TID 0000.0001)     ;
(PID.TID 0000.0001) rhoConst =   /* Reference density ( kg/m^3 ) */
(PID.TID 0000.0001)                 9.998000000000000E+02
(PID.TID 0000.0001)     ;
(PID.TID 0000.0001) rhoConstFresh =   /* Reference density ( kg/m^3 ) */
(PID.TID 0000.0001)                 9.998000000000000E+02
(PID.TID 0000.0001)     ;
(PID.TID 0000.0001) gravity =   /* Gravitational acceleration ( m/s^2 ) */
(PID.TID 0000.0001)                 9.810000000000000E+00
(PID.TID 0000.0001)     ;
(PID.TID 0000.0001) gBaro =   /* Barotropic gravity ( m/s^2 ) */
(PID.TID 0000.0001)                 9.810000000000000E+00
(PID.TID 0000.0001)     ;
(PID.TID 0000.0001) rotationPeriod =   /* Rotation Period ( s ) */
(PID.TID 0000.0001)                 8.640000000000000E+04
(PID.TID 0000.0001)     ;
(PID.TID 0000.0001) omega =   /* Angular velocity ( rad/s ) */
(PID.TID 0000.0001)                 7.272205216643040E-05
(PID.TID 0000.0001)     ;
(PID.TID 0000.0001) f0 =   /* Reference coriolis parameter ( 1/s ) */
(PID.TID 0000.0001)                 1.000000000000000E-04
(PID.TID 0000.0001)     ;
(PID.TID 0000.0001) beta =   /* Beta ( 1/(m.s) ) */
(PID.TID 0000.0001)                 9.999999999999999E-12
(PID.TID 0000.0001)     ;
(PID.TID 0000.0001) freeSurfFac =   /* Implicit free surface factor */
(PID.TID 0000.0001)                 1.000000000000000E+00
(PID.TID 0000.0001)     ;
(PID.TID 0000.0001) implicitFreeSurface =   /* Implicit free surface on/off flag */
(PID.TID 0000.0001)                   T
(PID.TID 0000.0001)     ;
(PID.TID 0000.0001) rigidLid =   /* Rigid lid on/off flag */
(PID.TID 0000.0001)                   F
(PID.TID 0000.0001)     ;
(PID.TID 0000.0001) implicSurfPress =   /* Surface Pressure implicit factor (0-1)*/
(PID.TID 0000.0001)                 1.000000000000000E+00
(PID.TID 0000.0001)     ;
(PID.TID 0000.0001) implicDiv2Dflow =   /* Barot. Flow Div. implicit factor (0-1)*/
(PID.TID 0000.0001)                 1.000000000000000E+00
(PID.TID 0000.0001)     ;
(PID.TID 0000.0001) exactConserv =   /* Exact Volume Conservation on/off flag*/
(PID.TID 0000.0001)                   F
(PID.TID 0000.0001)     ;
(PID.TID 0000.0001) uniformLin_PhiSurf =   /* use uniform Bo_surf on/off flag*/
(PID.TID 0000.0001)                   T
(PID.TID 0000.0001)     ;
(PID.TID 0000.0001) nonlinFreeSurf =   /* Non-linear Free Surf. options (-1,0,1,2,3)*/
(PID.TID 0000.0001)                       0
(PID.TID 0000.0001)     ;
(PID.TID 0000.0001)      -1,0= Off ; 1,2,3= On, 2=+rescale gU,gV, 3=+update cg2d solv.
(PID.TID 0000.0001) hFacInf =   /* lower threshold for hFac (nonlinFreeSurf only)*/
(PID.TID 0000.0001)                 2.000000000000000E-01
(PID.TID 0000.0001)     ;
(PID.TID 0000.0001) hFacSup =   /* upper threshold for hFac (nonlinFreeSurf only)*/
(PID.TID 0000.0001)                 2.000000000000000E+00
(PID.TID 0000.0001)     ;
(PID.TID 0000.0001) select_rStar =   /* r* Coordinate options (not yet implemented)*/
(PID.TID 0000.0001)                       0
(PID.TID 0000.0001)     ;
(PID.TID 0000.0001) useRealFreshWaterFlux =   /* Real Fresh Water Flux on/off flag*/
(PID.TID 0000.0001)                   F
(PID.TID 0000.0001)     ;
(PID.TID 0000.0001) convertFW2Salt = /* convert F.W. Flux to Salt Flux (-1=use local S)(ppt)*/
(PID.TID 0000.0001)                 3.500000000000000E+01
(PID.TID 0000.0001)     ;
(PID.TID 0000.0001) nonHydrostatic =  /* Non-Hydrostatic on/off flag */
(PID.TID 0000.0001)                   F
(PID.TID 0000.0001)     ;
(PID.TID 0000.0001) momStepping =  /* Momentum equation on/off flag */
(PID.TID 0000.0001)                   T
(PID.TID 0000.0001)     ;
(PID.TID 0000.0001) momAdvection =  /* Momentum advection on/off flag */
(PID.TID 0000.0001)                   T
(PID.TID 0000.0001)     ;
(PID.TID 0000.0001) momViscosity =  /* Momentum viscosity on/off flag */
(PID.TID 0000.0001)                   T
(PID.TID 0000.0001)     ;
(PID.TID 0000.0001) momImplVertAdv =/* Momentum implicit vert. advection on/off*/
(PID.TID 0000.0001)                   F
(PID.TID 0000.0001)     ;
(PID.TID 0000.0001) implicitViscosity = /* Implicit viscosity on/off flag */
(PID.TID 0000.0001)                   F
(PID.TID 0000.0001)     ;
(PID.TID 0000.0001) useCoriolis =  /* Coriolis on/off flag */
(PID.TID 0000.0001)                   T
(PID.TID 0000.0001)     ;
(PID.TID 0000.0001) useCDscheme =  /* CD scheme on/off flag */
(PID.TID 0000.0001)                   F
(PID.TID 0000.0001)     ;
(PID.TID 0000.0001) useJamartWetPoints= /* Coriolis WetPoints method flag */
(PID.TID 0000.0001)                   F
(PID.TID 0000.0001)     ;
(PID.TID 0000.0001) useJamartMomAdv= /* V.I. Non-linear terms Jamart flag */
(PID.TID 0000.0001)                   F
(PID.TID 0000.0001)     ;
(PID.TID 0000.0001) SadournyCoriolis= /* Sadourny Coriolis discr. flag */
(PID.TID 0000.0001)                   F
(PID.TID 0000.0001)     ;
(PID.TID 0000.0001) upwindVorticity= /* Upwind bias vorticity flag */
(PID.TID 0000.0001)                   F
(PID.TID 0000.0001)     ;
(PID.TID 0000.0001) useAbsVorticity= /* Work with f+zeta in Coriolis */
(PID.TID 0000.0001)                   F
(PID.TID 0000.0001)     ;
(PID.TID 0000.0001) highOrderVorticity= /* High order interp. of vort. flag */
(PID.TID 0000.0001)                   F
(PID.TID 0000.0001)     ;
(PID.TID 0000.0001) momForcing =  /* Momentum forcing on/off flag */
(PID.TID 0000.0001)                   T
(PID.TID 0000.0001)     ;
(PID.TID 0000.0001) momPressureForcing =  /* Momentum pressure term on/off flag */
(PID.TID 0000.0001)                   T
(PID.TID 0000.0001)     ;
(PID.TID 0000.0001) staggerTimeStep =   /* Stagger time stepping on/off flag */
(PID.TID 0000.0001)                   F
(PID.TID 0000.0001)     ;
(PID.TID 0000.0001) multiDimAdvection =   /* enable/disable Multi-Dim Advection */
(PID.TID 0000.0001)                   T
(PID.TID 0000.0001)     ;
(PID.TID 0000.0001) useMultiDimAdvec =   /* Multi-Dim Advection is/is-not used */
(PID.TID 0000.0001)                   F
(PID.TID 0000.0001)     ;
(PID.TID 0000.0001) implicitDiffusion =/* Implicit Diffusion on/off flag */
(PID.TID 0000.0001)                   F
(PID.TID 0000.0001)     ;
(PID.TID 0000.0001) tempStepping =  /* Temperature equation on/off flag */
(PID.TID 0000.0001)                   T
(PID.TID 0000.0001)     ;
(PID.TID 0000.0001) tempAdvection=  /* Temperature advection on/off flag */
(PID.TID 0000.0001)                   T
(PID.TID 0000.0001)     ;
(PID.TID 0000.0001) tempImplVertAdv =/* Temp. implicit vert. advection on/off */
(PID.TID 0000.0001)                   F
(PID.TID 0000.0001)     ;
(PID.TID 0000.0001) tempForcing  =  /* Temperature forcing on/off flag */
(PID.TID 0000.0001)                   T
(PID.TID 0000.0001)     ;
(PID.TID 0000.0001) saltStepping =  /* Salinity equation on/off flag */
(PID.TID 0000.0001)                   T
(PID.TID 0000.0001)     ;
(PID.TID 0000.0001) saltAdvection=  /* Salinity advection on/off flag */
(PID.TID 0000.0001)                   T
(PID.TID 0000.0001)     ;
(PID.TID 0000.0001) saltImplVertAdv =/* Sali. implicit vert. advection on/off */
(PID.TID 0000.0001)                   F
(PID.TID 0000.0001)     ;
(PID.TID 0000.0001) saltForcing  =  /* Salinity forcing on/off flag */
(PID.TID 0000.0001)                   T
(PID.TID 0000.0001)     ;
(PID.TID 0000.0001) //
(PID.TID 0000.0001) // Elliptic solver(s) paramters ( PARM02 in namelist )
(PID.TID 0000.0001) //
(PID.TID 0000.0001) cg2dMaxIters =   /* Upper limit on 2d con. grad iterations  */
(PID.TID 0000.0001)                    1000
(PID.TID 0000.0001)     ;
(PID.TID 0000.0001) cg2dChkResFreq =   /* 2d con. grad convergence test frequency */
(PID.TID 0000.0001)                       1
(PID.TID 0000.0001)     ;
(PID.TID 0000.0001) cg2dTargetResidual =   /* 2d con. grad target residual  */
(PID.TID 0000.0001)                 1.000000000000000E-07
(PID.TID 0000.0001)     ;
(PID.TID 0000.0001) cg2dTargetResWunit =   /* CG2d target residual [W units] */
(PID.TID 0000.0001)                -1.000000000000000E+00
(PID.TID 0000.0001)     ;
(PID.TID 0000.0001) cg2dPreCondFreq =   /* Freq. for updating cg2d preconditioner */
(PID.TID 0000.0001)                       1
(PID.TID 0000.0001)     ;
(PID.TID 0000.0001) //
(PID.TID 0000.0001) // Time stepping paramters ( PARM03 in namelist )
(PID.TID 0000.0001) //
(PID.TID 0000.0001) nIter0 =   /* Base timestep number  */
(PID.TID 0000.0001)                       0
(PID.TID 0000.0001)     ;
(PID.TID 0000.0001) nTimeSteps =   /* Number of timesteps */
(PID.TID 0000.0001)                      10
(PID.TID 0000.0001)     ;
(PID.TID 0000.0001) deltatTmom =   /* Momentum equation timestep ( s ) */
(PID.TID 0000.0001)                 1.200000000000000E+03
(PID.TID 0000.0001)     ;
(PID.TID 0000.0001) deltaTfreesurf =   /* FreeSurface equation timestep ( s ) */
(PID.TID 0000.0001)                 1.200000000000000E+03
(PID.TID 0000.0001)     ;
(PID.TID 0000.0001) dTtracerLev =   /* Tracer equation timestep ( s ) */
(PID.TID 0000.0001)                 1.200000000000000E+03       /* K =  1 */
(PID.TID 0000.0001)     ;
(PID.TID 0000.0001) deltatTClock  =   /* Model clock timestep ( s ) */
(PID.TID 0000.0001)                 1.200000000000000E+03
(PID.TID 0000.0001)     ;
(PID.TID 0000.0001) cAdjFreq =   /* Convective adjustment interval ( s ) */
(PID.TID 0000.0001)                 0.000000000000000E+00
(PID.TID 0000.0001)     ;
(PID.TID 0000.0001) forcing_In_AB =   /* put T,S Forcing in Adams-Bash. stepping */
(PID.TID 0000.0001)                   T
(PID.TID 0000.0001)     ;
(PID.TID 0000.0001) abeps =   /* Adams-Bashforth stabilizing weight */
(PID.TID 0000.0001)                 1.000000000000000E-01
(PID.TID 0000.0001)     ;
(PID.TID 0000.0001) startTime =   /* Run start time ( s ). */
(PID.TID 0000.0001)                 0.000000000000000E+00
(PID.TID 0000.0001)     ;
(PID.TID 0000.0001) endTime =   /* Integration ending time ( s ). */
(PID.TID 0000.0001)                 1.200000000000000E+04
(PID.TID 0000.0001)     ;
(PID.TID 0000.0001) pChkPtFreq =   /* Permanent restart/checkpoint file interval ( s ). */
(PID.TID 0000.0001)                 2.592000000000000E+06
(PID.TID 0000.0001)     ;
(PID.TID 0000.0001) chkPtFreq =   /* Rolling restart/checkpoint file interval ( s ). */
(PID.TID 0000.0001)                 1.200000000000000E+05
(PID.TID 0000.0001)     ;
(PID.TID 0000.0001) pickup_write_mdsio =   /* Model IO flag. */
(PID.TID 0000.0001)                   F
(PID.TID 0000.0001)     ;
(PID.TID 0000.0001) pickup_read_mdsio =   /* Model IO flag. */
(PID.TID 0000.0001)                   T
(PID.TID 0000.0001)     ;
(PID.TID 0000.0001) pickup_write_mnc =   /* Model IO flag. */
(PID.TID 0000.0001)                   T
(PID.TID 0000.0001)     ;
(PID.TID 0000.0001) pickup_read_mnc =   /* Model IO flag. */
(PID.TID 0000.0001)                   F
(PID.TID 0000.0001)     ;
(PID.TID 0000.0001) pickup_write_immed =   /* Model IO flag. */
(PID.TID 0000.0001)                   F
(PID.TID 0000.0001)     ;
(PID.TID 0000.0001) dumpFreq =   /* Model state write out interval ( s ). */
(PID.TID 0000.0001)                 2.592000000000000E+06
(PID.TID 0000.0001)     ;
(PID.TID 0000.0001) snapshot_mdsio =   /* Model IO flag. */
(PID.TID 0000.0001)                   F
(PID.TID 0000.0001)     ;
(PID.TID 0000.0001) snapshot_mnc =   /* Model IO flag. */
(PID.TID 0000.0001)                   T
(PID.TID 0000.0001)     ;
(PID.TID 0000.0001) monitorFreq =   /* Monitor output interval ( s ). */
(PID.TID 0000.0001)                 1.000000000000000E+00
(PID.TID 0000.0001)     ;
(PID.TID 0000.0001) monitor_stdio =   /* Model IO flag. */
(PID.TID 0000.0001)                   T
(PID.TID 0000.0001)     ;
(PID.TID 0000.0001) monitor_mnc =   /* Model IO flag. */
(PID.TID 0000.0001)                   F
(PID.TID 0000.0001)     ;
(PID.TID 0000.0001) externForcingPeriod =   /* forcing period (s) */
(PID.TID 0000.0001)                 0.000000000000000E+00
(PID.TID 0000.0001)     ;
(PID.TID 0000.0001) externForcingCycle =   /* period of the cyle (s). */
(PID.TID 0000.0001)                 0.000000000000000E+00
(PID.TID 0000.0001)     ;
(PID.TID 0000.0001) tauThetaClimRelax =   /* relaxation time scale (s) */
(PID.TID 0000.0001)                 0.000000000000000E+00
(PID.TID 0000.0001)     ;
(PID.TID 0000.0001) tauSaltClimRelax =   /* relaxation time scale (s) */
(PID.TID 0000.0001)                 0.000000000000000E+00
(PID.TID 0000.0001)     ;
(PID.TID 0000.0001) latBandClimRelax =   /* max. Lat. where relaxation */
(PID.TID 0000.0001)                 7.200000000000000E+07
(PID.TID 0000.0001)     ;
(PID.TID 0000.0001) //
(PID.TID 0000.0001) // Gridding paramters ( PARM04 in namelist )
(PID.TID 0000.0001) //
(PID.TID 0000.0001) usingCartesianGrid =   /* Cartesian coordinates flag ( True / False ) */
(PID.TID 0000.0001)                   T
(PID.TID 0000.0001)     ;
(PID.TID 0000.0001) usingSphericalPolarGrid =   /* Spherical coordinates flag ( True / False ) */
(PID.TID 0000.0001)                   F
(PID.TID 0000.0001)     ;
(PID.TID 0000.0001) usingCylindricalGrid =   /* Spherical coordinates flag ( True / False ) */
(PID.TID 0000.0001)                   F
(PID.TID 0000.0001)     ;
(PID.TID 0000.0001) groundAtK1 =   /* Lower Boundary (ground) at the surface(k=1) ( T / F ) */
(PID.TID 0000.0001)                   F
(PID.TID 0000.0001)     ;
(PID.TID 0000.0001) Ro_SeaLevel =   /* r(1) ( units of r ) */
(PID.TID 0000.0001)                 0.000000000000000E+00
(PID.TID 0000.0001)     ;
(PID.TID 0000.0001) rkFac =   /* minus Vertical index orientation  */
(PID.TID 0000.0001)                 1.000000000000000E+00
(PID.TID 0000.0001)     ;
(PID.TID 0000.0001) horiVertRatio =   /* Ratio on units : Horiz - Vertical */
(PID.TID 0000.0001)                 1.000000000000000E+00
(PID.TID 0000.0001)     ;
(PID.TID 0000.0001) drC =   /* C spacing ( units of r ) */
(PID.TID 0000.0001)                 2.500000000000000E+03       /* K =  1 */
(PID.TID 0000.0001)     ;
(PID.TID 0000.0001) drF =   /* W spacing ( units of r ) */
(PID.TID 0000.0001)                 5.000000000000000E+03       /* K =  1 */
(PID.TID 0000.0001)     ;
(PID.TID 0000.0001) delX =   /* U spacing ( m - cartesian, degrees - spherical ) */
(PID.TID 0000.0001)    60 @  2.000000000000000E+04              /* I =  1: 60 */
(PID.TID 0000.0001)     ;
(PID.TID 0000.0001) delY =   /* V spacing ( m - cartesian, degrees - spherical ) */
(PID.TID 0000.0001)    60 @  2.000000000000000E+04              /* J =  1: 60 */
(PID.TID 0000.0001)     ;
(PID.TID 0000.0001) phiMin =    /* South edge (ignored - cartesian, degrees - spherical ) */
(PID.TID 0000.0001)                 0.000000000000000E+00
(PID.TID 0000.0001)     ;
(PID.TID 0000.0001) thetaMin =    /* West edge ( ignored - cartesian, degrees - spherical ) */
(PID.TID 0000.0001)                 0.000000000000000E+00
(PID.TID 0000.0001)     ;
(PID.TID 0000.0001) rSphere =    /* Radius ( ignored - cartesian, m - spherical ) */
(PID.TID 0000.0001)                 6.370000000000000E+06
(PID.TID 0000.0001)     ;
(PID.TID 0000.0001) xcoord =   /* P-point X coord ( m - cartesian, degrees - spherical ) */
(PID.TID 0000.0001)                 1.000000000000000E+04,      /* I =  1 */
(PID.TID 0000.0001)                 3.000000000000000E+04,      /* I =  2 */
(PID.TID 0000.0001)                 5.000000000000000E+04,      /* I =  3 */
(PID.TID 0000.0001)                 7.000000000000000E+04,      /* I =  4 */
(PID.TID 0000.0001)                 9.000000000000000E+04,      /* I =  5 */
(PID.TID 0000.0001)                 1.100000000000000E+05,      /* I =  6 */
(PID.TID 0000.0001)                 1.300000000000000E+05,      /* I =  7 */
(PID.TID 0000.0001)                 1.500000000000000E+05,      /* I =  8 */
(PID.TID 0000.0001)                 1.700000000000000E+05,      /* I =  9 */
(PID.TID 0000.0001)                 1.900000000000000E+05,      /* I = 10 */
(PID.TID 0000.0001)                 2.100000000000000E+05,      /* I = 11 */
(PID.TID 0000.0001)                 2.300000000000000E+05,      /* I = 12 */
(PID.TID 0000.0001)                 2.500000000000000E+05,      /* I = 13 */
(PID.TID 0000.0001)                 2.700000000000000E+05,      /* I = 14 */
(PID.TID 0000.0001)                 2.900000000000000E+05,      /* I = 15 */
(PID.TID 0000.0001)                 3.100000000000000E+05,      /* I = 16 */
(PID.TID 0000.0001)                 3.300000000000000E+05,      /* I = 17 */
(PID.TID 0000.0001)                 3.500000000000000E+05,      /* I = 18 */
(PID.TID 0000.0001)                 3.700000000000000E+05,      /* I = 19 */
(PID.TID 0000.0001)                 3.900000000000000E+05,      /* I = 20 */
(PID.TID 0000.0001)                 4.100000000000000E+05,      /* I = 21 */
(PID.TID 0000.0001)                 4.300000000000000E+05,      /* I = 22 */
(PID.TID 0000.0001)                 4.500000000000000E+05,      /* I = 23 */
(PID.TID 0000.0001)                 4.700000000000000E+05,      /* I = 24 */
(PID.TID 0000.0001)                 4.900000000000000E+05,      /* I = 25 */
(PID.TID 0000.0001)                 5.100000000000000E+05,      /* I = 26 */
(PID.TID 0000.0001)                 5.300000000000000E+05,      /* I = 27 */
(PID.TID 0000.0001)                 5.500000000000000E+05,      /* I = 28 */
(PID.TID 0000.0001)                 5.700000000000000E+05,      /* I = 29 */
(PID.TID 0000.0001)                 5.900000000000000E+05,      /* I = 30 */
(PID.TID 0000.0001)                 6.100000000000000E+05,      /* I = 31 */
(PID.TID 0000.0001)                 6.300000000000000E+05,      /* I = 32 */
(PID.TID 0000.0001)                 6.500000000000000E+05,      /* I = 33 */
(PID.TID 0000.0001)                 6.700000000000000E+05,      /* I = 34 */
(PID.TID 0000.0001)                 6.900000000000000E+05,      /* I = 35 */
(PID.TID 0000.0001)                 7.100000000000000E+05,      /* I = 36 */
(PID.TID 0000.0001)                 7.300000000000000E+05,      /* I = 37 */
(PID.TID 0000.0001)                 7.500000000000000E+05,      /* I = 38 */
(PID.TID 0000.0001)                 7.700000000000000E+05,      /* I = 39 */
(PID.TID 0000.0001)                 7.900000000000000E+05,      /* I = 40 */
(PID.TID 0000.0001)                 8.100000000000000E+05,      /* I = 41 */
(PID.TID 0000.0001)                 8.300000000000000E+05,      /* I = 42 */
(PID.TID 0000.0001)                 8.500000000000000E+05,      /* I = 43 */
(PID.TID 0000.0001)                 8.700000000000000E+05,      /* I = 44 */
(PID.TID 0000.0001)                 8.900000000000000E+05,      /* I = 45 */
(PID.TID 0000.0001)                 9.100000000000000E+05,      /* I = 46 */
(PID.TID 0000.0001)                 9.300000000000000E+05,      /* I = 47 */
(PID.TID 0000.0001)                 9.500000000000000E+05,      /* I = 48 */
(PID.TID 0000.0001)                 9.700000000000000E+05,      /* I = 49 */
(PID.TID 0000.0001)                 9.900000000000000E+05,      /* I = 50 */
(PID.TID 0000.0001)                 1.010000000000000E+06,      /* I = 51 */
(PID.TID 0000.0001)                 1.030000000000000E+06,      /* I = 52 */
(PID.TID 0000.0001)                 1.050000000000000E+06,      /* I = 53 */
(PID.TID 0000.0001)                 1.070000000000000E+06,      /* I = 54 */
(PID.TID 0000.0001)                 1.090000000000000E+06,      /* I = 55 */
(PID.TID 0000.0001)                 1.110000000000000E+06,      /* I = 56 */
(PID.TID 0000.0001)                 1.130000000000000E+06,      /* I = 57 */
(PID.TID 0000.0001)                 1.150000000000000E+06,      /* I = 58 */
(PID.TID 0000.0001)                 1.170000000000000E+06,      /* I = 59 */
(PID.TID 0000.0001)                 1.190000000000000E+06       /* I = 60 */
(PID.TID 0000.0001)     ;
(PID.TID 0000.0001) ycoord =   /* P-point Y coord ( m - cartesian, degrees - spherical ) */
(PID.TID 0000.0001)                 1.000000000000000E+04,      /* J =  1 */
(PID.TID 0000.0001)                 3.000000000000000E+04,      /* J =  2 */
(PID.TID 0000.0001)                 5.000000000000000E+04,      /* J =  3 */
(PID.TID 0000.0001)                 7.000000000000000E+04,      /* J =  4 */
(PID.TID 0000.0001)                 9.000000000000000E+04,      /* J =  5 */
(PID.TID 0000.0001)                 1.100000000000000E+05,      /* J =  6 */
(PID.TID 0000.0001)                 1.300000000000000E+05,      /* J =  7 */
(PID.TID 0000.0001)                 1.500000000000000E+05,      /* J =  8 */
(PID.TID 0000.0001)                 1.700000000000000E+05,      /* J =  9 */
(PID.TID 0000.0001)                 1.900000000000000E+05,      /* J = 10 */
(PID.TID 0000.0001)                 2.100000000000000E+05,      /* J = 11 */
(PID.TID 0000.0001)                 2.300000000000000E+05,      /* J = 12 */
(PID.TID 0000.0001)                 2.500000000000000E+05,      /* J = 13 */
(PID.TID 0000.0001)                 2.700000000000000E+05,      /* J = 14 */
(PID.TID 0000.0001)                 2.900000000000000E+05,      /* J = 15 */
(PID.TID 0000.0001)                 3.100000000000000E+05,      /* J = 16 */
(PID.TID 0000.0001)                 3.300000000000000E+05,      /* J = 17 */
(PID.TID 0000.0001)                 3.500000000000000E+05,      /* J = 18 */
(PID.TID 0000.0001)                 3.700000000000000E+05,      /* J = 19 */
(PID.TID 0000.0001)                 3.900000000000000E+05,      /* J = 20 */
(PID.TID 0000.0001)                 4.100000000000000E+05,      /* J = 21 */
(PID.TID 0000.0001)                 4.300000000000000E+05,      /* J = 22 */
(PID.TID 0000.0001)                 4.500000000000000E+05,      /* J = 23 */
(PID.TID 0000.0001)                 4.700000000000000E+05,      /* J = 24 */
(PID.TID 0000.0001)                 4.900000000000000E+05,      /* J = 25 */
(PID.TID 0000.0001)                 5.100000000000000E+05,      /* J = 26 */
(PID.TID 0000.0001)                 5.300000000000000E+05,      /* J = 27 */
(PID.TID 0000.0001)                 5.500000000000000E+05,      /* J = 28 */
(PID.TID 0000.0001)                 5.700000000000000E+05,      /* J = 29 */
(PID.TID 0000.0001)                 5.900000000000000E+05,      /* J = 30 */
(PID.TID 0000.0001)                 6.100000000000000E+05,      /* J = 31 */
(PID.TID 0000.0001)                 6.300000000000000E+05,      /* J = 32 */
(PID.TID 0000.0001)                 6.500000000000000E+05,      /* J = 33 */
(PID.TID 0000.0001)                 6.700000000000000E+05,      /* J = 34 */
(PID.TID 0000.0001)                 6.900000000000000E+05,      /* J = 35 */
(PID.TID 0000.0001)                 7.100000000000000E+05,      /* J = 36 */
(PID.TID 0000.0001)                 7.300000000000000E+05,      /* J = 37 */
(PID.TID 0000.0001)                 7.500000000000000E+05,      /* J = 38 */
(PID.TID 0000.0001)                 7.700000000000000E+05,      /* J = 39 */
(PID.TID 0000.0001)                 7.900000000000000E+05,      /* J = 40 */
(PID.TID 0000.0001)                 8.100000000000000E+05,      /* J = 41 */
(PID.TID 0000.0001)                 8.300000000000000E+05,      /* J = 42 */
(PID.TID 0000.0001)                 8.500000000000000E+05,      /* J = 43 */
(PID.TID 0000.0001)                 8.700000000000000E+05,      /* J = 44 */
(PID.TID 0000.0001)                 8.900000000000000E+05,      /* J = 45 */
(PID.TID 0000.0001)                 9.100000000000000E+05,      /* J = 46 */
(PID.TID 0000.0001)                 9.300000000000000E+05,      /* J = 47 */
(PID.TID 0000.0001)                 9.500000000000000E+05,      /* J = 48 */
(PID.TID 0000.0001)                 9.700000000000000E+05,      /* J = 49 */
(PID.TID 0000.0001)                 9.900000000000000E+05,      /* J = 50 */
(PID.TID 0000.0001)                 1.010000000000000E+06,      /* J = 51 */
(PID.TID 0000.0001)                 1.030000000000000E+06,      /* J = 52 */
(PID.TID 0000.0001)                 1.050000000000000E+06,      /* J = 53 */
(PID.TID 0000.0001)                 1.070000000000000E+06,      /* J = 54 */
(PID.TID 0000.0001)                 1.090000000000000E+06,      /* J = 55 */
(PID.TID 0000.0001)                 1.110000000000000E+06,      /* J = 56 */
(PID.TID 0000.0001)                 1.130000000000000E+06,      /* J = 57 */
(PID.TID 0000.0001)                 1.150000000000000E+06,      /* J = 58 */
(PID.TID 0000.0001)                 1.170000000000000E+06,      /* J = 59 */
(PID.TID 0000.0001)                 1.190000000000000E+06       /* J = 60 */
(PID.TID 0000.0001)     ;
(PID.TID 0000.0001) rcoord =   /* P-point R coordinate (  units of r ) */
(PID.TID 0000.0001)                -2.500000000000000E+03       /* K =  1 */
(PID.TID 0000.0001)     ;
(PID.TID 0000.0001) rF =   /* W-Interf. R coordinate (  units of r ) */
(PID.TID 0000.0001)                 0.000000000000000E+00,      /* K =  1 */
(PID.TID 0000.0001)                -5.000000000000000E+03       /* K =  2 */
(PID.TID 0000.0001)     ;
(PID.TID 0000.0001) dxF =  /* dxF(:,1,:,1) ( m - cartesian, degrees - spherical ) */
(PID.TID 0000.0001)    60 @  2.000000000000000E+04              /* I =  1: 60 */
(PID.TID 0000.0001)     ;
(PID.TID 0000.0001) dxF =  /* dxF(1,:,1,:) ( m - cartesian, degrees - spherical ) */
(PID.TID 0000.0001)    60 @  2.000000000000000E+04              /* J =  1: 60 */
(PID.TID 0000.0001)     ;
(PID.TID 0000.0001) dyF =  /* dyF(:,1,:,1) ( m - cartesian, degrees - spherical ) */
(PID.TID 0000.0001)    60 @  2.000000000000000E+04              /* I =  1: 60 */
(PID.TID 0000.0001)     ;
(PID.TID 0000.0001) dyF =  /* dyF(1,:,1,:) ( m - cartesian, degrees - spherical ) */
(PID.TID 0000.0001)    60 @  2.000000000000000E+04              /* J =  1: 60 */
(PID.TID 0000.0001)     ;
(PID.TID 0000.0001) dxG =  /* dxG(:,1,:,1) ( m - cartesian, degrees - spherical ) */
(PID.TID 0000.0001)    60 @  2.000000000000000E+04              /* I =  1: 60 */
(PID.TID 0000.0001)     ;
(PID.TID 0000.0001) dxG =  /* dxG(1,:,1,:) ( m - cartesian, degrees - spherical ) */
(PID.TID 0000.0001)    60 @  2.000000000000000E+04              /* J =  1: 60 */
(PID.TID 0000.0001)     ;
(PID.TID 0000.0001) dyG =  /* dyG(:,1,:,1) ( m - cartesian, degrees - spherical ) */
(PID.TID 0000.0001)    60 @  2.000000000000000E+04              /* I =  1: 60 */
(PID.TID 0000.0001)     ;
(PID.TID 0000.0001) dyG =  /* dyG(1,:,1,:) ( m - cartesian, degrees - spherical ) */
(PID.TID 0000.0001)    60 @  2.000000000000000E+04              /* J =  1: 60 */
(PID.TID 0000.0001)     ;
(PID.TID 0000.0001) dxC =  /* dxC(:,1,:,1) ( m - cartesian, degrees - spherical ) */
(PID.TID 0000.0001)    60 @  2.000000000000000E+04              /* I =  1: 60 */
(PID.TID 0000.0001)     ;
(PID.TID 0000.0001) dxC =  /* dxC(1,:,1,:) ( m - cartesian, degrees - spherical ) */
(PID.TID 0000.0001)    60 @  2.000000000000000E+04              /* J =  1: 60 */
(PID.TID 0000.0001)     ;
(PID.TID 0000.0001) dyC =  /* dyC(:,1,:,1) ( m - cartesian, degrees - spherical ) */
(PID.TID 0000.0001)    60 @  2.000000000000000E+04              /* I =  1: 60 */
(PID.TID 0000.0001)     ;
(PID.TID 0000.0001) dyC =  /* dyC(1,:,1,:) ( m - cartesian, degrees - spherical ) */
(PID.TID 0000.0001)    60 @  2.000000000000000E+04              /* J =  1: 60 */
(PID.TID 0000.0001)     ;
(PID.TID 0000.0001) dxV =  /* dxV(:,1,:,1) ( m - cartesian, degrees - spherical ) */
(PID.TID 0000.0001)    60 @  2.000000000000000E+04              /* I =  1: 60 */
(PID.TID 0000.0001)     ;
(PID.TID 0000.0001) dxV =  /* dxV(1,:,1,:) ( m - cartesian, degrees - spherical ) */
(PID.TID 0000.0001)    60 @  2.000000000000000E+04              /* J =  1: 60 */
(PID.TID 0000.0001)     ;
(PID.TID 0000.0001) dyU =  /* dyU(:,1,:,1) ( m - cartesian, degrees - spherical ) */
(PID.TID 0000.0001)    60 @  2.000000000000000E+04              /* I =  1: 60 */
(PID.TID 0000.0001)     ;
(PID.TID 0000.0001) dyU =  /* dyU(1,:,1,:) ( m - cartesian, degrees - spherical ) */
(PID.TID 0000.0001)    60 @  2.000000000000000E+04              /* J =  1: 60 */
(PID.TID 0000.0001)     ;
(PID.TID 0000.0001) rA =  /* rA(:,1,:,1) ( m - cartesian, degrees - spherical ) */
(PID.TID 0000.0001)    60 @  4.000000000000000E+08              /* I =  1: 60 */
(PID.TID 0000.0001)     ;
(PID.TID 0000.0001) rA =  /* rA(1,:,1,:) ( m - cartesian, degrees - spherical ) */
(PID.TID 0000.0001)    60 @  4.000000000000000E+08              /* J =  1: 60 */
(PID.TID 0000.0001)     ;
(PID.TID 0000.0001) rAw =  /* rAw(:,1,:,1) ( m - cartesian, degrees - spherical ) */
(PID.TID 0000.0001)    60 @  4.000000000000000E+08              /* I =  1: 60 */
(PID.TID 0000.0001)     ;
(PID.TID 0000.0001) rAw =  /* rAw(1,:,1,:) ( m - cartesian, degrees - spherical ) */
(PID.TID 0000.0001)    60 @  4.000000000000000E+08              /* J =  1: 60 */
(PID.TID 0000.0001)     ;
(PID.TID 0000.0001) rAs =  /* rAs(:,1,:,1) ( m - cartesian, degrees - spherical ) */
(PID.TID 0000.0001)    60 @  4.000000000000000E+08              /* I =  1: 60 */
(PID.TID 0000.0001)     ;
(PID.TID 0000.0001) rAs =  /* rAs(1,:,1,:) ( m - cartesian, degrees - spherical ) */
(PID.TID 0000.0001)    60 @  4.000000000000000E+08              /* J =  1: 60 */
(PID.TID 0000.0001)     ;
(PID.TID 0000.0001) 
(PID.TID 0000.0001) // =======================================================
(PID.TID 0000.0001) // Field Initial Temperature at iteration          1
(PID.TID 0000.0001) // CMIN =          2.000000000000000E+01
(PID.TID 0000.0001) // CMAX =          2.000000000000000E+01
(PID.TID 0000.0001) // CINT =          0.000000000000000E+00
(PID.TID 0000.0001) // SYMBOLS (CMIN->CMAX): -abcdefghijklmnopqrstuvwxyz+
(PID.TID 0000.0001) //                  0.0: .
(PID.TID 0000.0001) // RANGE I (Lo:Hi:Step):(   1:  60:   1)
(PID.TID 0000.0001) // RANGE J (Lo:Hi:Step):(  60:   1:  -1)
(PID.TID 0000.0001) // RANGE K (Lo:Hi:Step):(   1:   1:   1)
(PID.TID 0000.0001) // =======================================================
(PID.TID 0000.0001) // =======================================================
(PID.TID 0000.0001) // END OF FIELD                                          =
(PID.TID 0000.0001) // =======================================================
(PID.TID 0000.0001) 
(PID.TID 0000.0001) // =======================================================
(PID.TID 0000.0001) // Field Initial Salinity at iteration          1
(PID.TID 0000.0001) // CMIN =          1.000000000000000E+01
(PID.TID 0000.0001) // CMAX =          1.000000000000000E+01
(PID.TID 0000.0001) // CINT =          0.000000000000000E+00
(PID.TID 0000.0001) // SYMBOLS (CMIN->CMAX): -abcdefghijklmnopqrstuvwxyz+
(PID.TID 0000.0001) //                  0.0: .
(PID.TID 0000.0001) // RANGE I (Lo:Hi:Step):(   1:  60:   1)
(PID.TID 0000.0001) // RANGE J (Lo:Hi:Step):(  60:   1:  -1)
(PID.TID 0000.0001) // RANGE K (Lo:Hi:Step):(   1:   1:   1)
(PID.TID 0000.0001) // =======================================================
(PID.TID 0000.0001) // =======================================================
(PID.TID 0000.0001) // END OF FIELD                                          =
(PID.TID 0000.0001) // =======================================================
(PID.TID 0000.0001) 
(PID.TID 0000.0001) Start initial hydrostatic pressure computation
(PID.TID 0000.0001) Pressure is predetermined for buoyancyRelation OCEANIC
(PID.TID 0000.0001) 
(PID.TID 0000.0001)  MDSREADFIELD: opening global file: windx.sin_y
(PID.TID 0000.0001) // =======================================================
(PID.TID 0000.0001) // Model current state
(PID.TID 0000.0001) // =======================================================
(PID.TID 0000.0001) 
(PID.TID 0000.0001) // =======================================================
(PID.TID 0000.0001) // Begin MONITOR dynamic field statistics
(PID.TID 0000.0001) // =======================================================
(PID.TID 0000.0001) %MON time_tsnumber                =                     0
(PID.TID 0000.0001) %MON time_secondsf                =   0.0000000000000E+00
(PID.TID 0000.0001) %MON dynstat_eta_max              =   0.0000000000000E+00
(PID.TID 0000.0001) %MON dynstat_eta_min              =   0.0000000000000E+00
(PID.TID 0000.0001) %MON dynstat_eta_mean             =   0.0000000000000E+00
(PID.TID 0000.0001) %MON dynstat_eta_sd               =   0.0000000000000E+00
(PID.TID 0000.0001) %MON dynstat_eta_del2             =   0.0000000000000E+00
(PID.TID 0000.0001) %MON dynstat_uvel_max             =   0.0000000000000E+00
(PID.TID 0000.0001) %MON dynstat_uvel_min             =   0.0000000000000E+00
(PID.TID 0000.0001) %MON dynstat_uvel_mean            =   0.0000000000000E+00
(PID.TID 0000.0001) %MON dynstat_uvel_sd              =   0.0000000000000E+00
(PID.TID 0000.0001) %MON dynstat_uvel_del2            =   0.0000000000000E+00
(PID.TID 0000.0001) %MON dynstat_vvel_max             =   0.0000000000000E+00
(PID.TID 0000.0001) %MON dynstat_vvel_min             =   0.0000000000000E+00
(PID.TID 0000.0001) %MON dynstat_vvel_mean            =   0.0000000000000E+00
(PID.TID 0000.0001) %MON dynstat_vvel_sd              =   0.0000000000000E+00
(PID.TID 0000.0001) %MON dynstat_vvel_del2            =   0.0000000000000E+00
(PID.TID 0000.0001) %MON dynstat_wvel_max             =   0.0000000000000E+00
(PID.TID 0000.0001) %MON dynstat_wvel_min             =   0.0000000000000E+00
(PID.TID 0000.0001) %MON dynstat_wvel_mean            =   0.0000000000000E+00
(PID.TID 0000.0001) %MON dynstat_wvel_sd              =   0.0000000000000E+00
(PID.TID 0000.0001) %MON dynstat_wvel_del2            =   0.0000000000000E+00
(PID.TID 0000.0001) %MON dynstat_theta_max            =   2.0000000000000E+01
(PID.TID 0000.0001) %MON dynstat_theta_min            =   2.0000000000000E+01
(PID.TID 0000.0001) %MON dynstat_theta_mean           =   2.0000000000000E+01
(PID.TID 0000.0001) %MON dynstat_theta_sd             =   0.0000000000000E+00
(PID.TID 0000.0001) %MON dynstat_theta_del2           =   0.0000000000000E+00
(PID.TID 0000.0001) %MON dynstat_salt_max             =   1.0000000000000E+01
(PID.TID 0000.0001) %MON dynstat_salt_min             =   1.0000000000000E+01
(PID.TID 0000.0001) %MON dynstat_salt_mean            =   1.0000000000000E+01
(PID.TID 0000.0001) %MON dynstat_salt_sd              =   0.0000000000000E+00
(PID.TID 0000.0001) %MON dynstat_salt_del2            =   0.0000000000000E+00
(PID.TID 0000.0001) %MON advcfl_uvel_max              =   0.0000000000000E+00
(PID.TID 0000.0001) %MON advcfl_vvel_max              =   0.0000000000000E+00
(PID.TID 0000.0001) %MON advcfl_wvel_max              =   0.0000000000000E+00
(PID.TID 0000.0001) %MON advcfl_W_hf_max              =   0.0000000000000E+00
(PID.TID 0000.0001) %MON pe_b_mean                    =   0.0000000000000E+00
(PID.TID 0000.0001) %MON ke_max                       =   0.0000000000000E+00
(PID.TID 0000.0001) %MON ke_mean                      =   0.0000000000000E+00
(PID.TID 0000.0001) %MON ke_vol                       =   6.9620000000000E+15
(PID.TID 0000.0001) %MON vort_r_min                   =   0.0000000000000E+00
(PID.TID 0000.0001) %MON vort_r_max                   =   0.0000000000000E+00
(PID.TID 0000.0001) %MON vort_a_mean                  =   1.0590000000000E-04
(PID.TID 0000.0001) %MON vort_a_sd                    =   3.4599552486417E-06
(PID.TID 0000.0001) %MON vort_p_mean                  =   1.1128474576271E-04
(PID.TID 0000.0001) %MON vort_p_sd                    =   4.1218906364489E-05
(PID.TID 0000.0001) %MON surfExpan_theta_mean         =   0.0000000000000E+00
(PID.TID 0000.0001) %MON surfExpan_salt_mean          =   0.0000000000000E+00
(PID.TID 0000.0001) // =======================================================
(PID.TID 0000.0001) // End MONITOR dynamic field statistics
(PID.TID 0000.0001) // =======================================================
 cg2d: Sum(rhs),rhsMax =   0.00000000000000E+00  4.00080016003201E-04
(PID.TID 0000.0001)                    cg2d_init_res =    7.68114574786861E+00
(PID.TID 0000.0001)                       cg2d_iters =    70
(PID.TID 0000.0001)                         cg2d_res =    8.05222445937175E-08
(PID.TID 0000.0001) // =======================================================
(PID.TID 0000.0001) // Begin MONITOR dynamic field statistics
(PID.TID 0000.0001) // =======================================================
(PID.TID 0000.0001) %MON time_tsnumber                =                     1
(PID.TID 0000.0001) %MON time_secondsf                =   1.2000000000000E+03
(PID.TID 0000.0001) %MON dynstat_eta_max              =   4.3758632977847E-04
(PID.TID 0000.0001) %MON dynstat_eta_min              =  -4.3758632977847E-04
(PID.TID 0000.0001) %MON dynstat_eta_mean             =  -8.7668997773628E-21
(PID.TID 0000.0001) %MON dynstat_eta_sd               =   1.5673928684392E-04
(PID.TID 0000.0001) %MON dynstat_eta_del2             =   3.6168237022336E-07
(PID.TID 0000.0001) %MON dynstat_uvel_max             =   2.0287550985396E-05
(PID.TID 0000.0001) %MON dynstat_uvel_min             =  -3.9462434727084E-06
(PID.TID 0000.0001) %MON dynstat_uvel_mean            =   8.7025824510726E-06
(PID.TID 0000.0001) %MON dynstat_uvel_sd              =   6.7009594059407E-06
(PID.TID 0000.0001) %MON dynstat_uvel_del2            =   3.9010964013632E-08
(PID.TID 0000.0001) %MON dynstat_vvel_max             =   7.8123864513865E-06
(PID.TID 0000.0001) %MON dynstat_vvel_min             =  -7.8123864513866E-06
(PID.TID 0000.0001) %MON dynstat_vvel_mean            =   3.4836145397657E-22
(PID.TID 0000.0001) %MON dynstat_vvel_sd              =   2.1661848252698E-06
(PID.TID 0000.0001) %MON dynstat_vvel_del2            =   1.0630478847704E-08
(PID.TID 0000.0001) %MON dynstat_wvel_max             =   3.6465527936447E-07
(PID.TID 0000.0001) %MON dynstat_wvel_min             =  -3.6465527936454E-07
(PID.TID 0000.0001) %MON dynstat_wvel_mean            =  -6.4210691728732E-23
(PID.TID 0000.0001) %MON dynstat_wvel_sd              =   1.3061607236993E-07
(PID.TID 0000.0001) %MON dynstat_wvel_del2            =   3.0140195992951E-10
(PID.TID 0000.0001) %MON dynstat_theta_max            =   2.0000000000000E+01
(PID.TID 0000.0001) %MON dynstat_theta_min            =   2.0000000000000E+01
(PID.TID 0000.0001) %MON dynstat_theta_mean           =   2.0000000000000E+01
(PID.TID 0000.0001) %MON dynstat_theta_sd             =   0.0000000000000E+00
(PID.TID 0000.0001) %MON dynstat_theta_del2           =   0.0000000000000E+00
(PID.TID 0000.0001) %MON dynstat_salt_max             =   1.0000000000000E+01
(PID.TID 0000.0001) %MON dynstat_salt_min             =   1.0000000000000E+01
(PID.TID 0000.0001) %MON dynstat_salt_mean            =   1.0000000000000E+01
(PID.TID 0000.0001) %MON dynstat_salt_sd              =   0.0000000000000E+00
(PID.TID 0000.0001) %MON dynstat_salt_del2            =   0.0000000000000E+00
(PID.TID 0000.0001) %MON advcfl_uvel_max              =   1.2172530591237E-06
(PID.TID 0000.0001) %MON advcfl_vvel_max              =   4.6874318708320E-07
(PID.TID 0000.0001) %MON advcfl_wvel_max              =   1.7503453409498E-07
(PID.TID 0000.0001) %MON advcfl_W_hf_max              =   0.0000000000000E+00
(PID.TID 0000.0001) %MON pe_b_mean                    =   2.4100427163574E-11
(PID.TID 0000.0001) %MON ke_max                       =   2.0579236249252E-10
(PID.TID 0000.0001) %MON ke_mean                      =   6.1602957530090E-11
(PID.TID 0000.0001) %MON ke_vol                       =   6.9620000000000E+15
(PID.TID 0000.0001) %MON vort_r_min                   =  -3.9061932256933E-10
(PID.TID 0000.0001) %MON vort_r_max                   =   3.9061932256933E-10
(PID.TID 0000.0001) %MON vort_a_mean                  =   1.0590000000000E-04
(PID.TID 0000.0001) %MON vort_a_sd                    =   3.4599791845877E-06
(PID.TID 0000.0001) %MON vort_p_mean                  =   1.1128474576271E-04
(PID.TID 0000.0001) %MON vort_p_sd                    =   4.1218904151184E-05
(PID.TID 0000.0001) %MON surfExpan_theta_mean         =   1.6721534304357E-22
(PID.TID 0000.0001) %MON surfExpan_salt_mean          =   8.3607671521786E-23
(PID.TID 0000.0001) // =======================================================
(PID.TID 0000.0001) // End MONITOR dynamic field statistics
(PID.TID 0000.0001) // =======================================================
 cg2d: Sum(rhs),rhsMax =   9.94759830064140E-14  4.50084479597635E-04
(PID.TID 0000.0001)                    cg2d_init_res =    2.36253875262728E+00
(PID.TID 0000.0001)                       cg2d_iters =    91
(PID.TID 0000.0001)                         cg2d_res =    7.96947530511888E-08
(PID.TID 0000.0001) // =======================================================
(PID.TID 0000.0001) // Begin MONITOR dynamic field statistics
(PID.TID 0000.0001) // =======================================================
(PID.TID 0000.0001) %MON time_tsnumber                =                     2
(PID.TID 0000.0001) %MON time_secondsf                =   2.4000000000000E+03
(PID.TID 0000.0001) %MON dynstat_eta_max              =   7.8174252783372E-04
(PID.TID 0000.0001) %MON dynstat_eta_min              =  -7.8088778720278E-04
(PID.TID 0000.0001) %MON dynstat_eta_mean             =  -1.3369513393579E-14
(PID.TID 0000.0001) %MON dynstat_eta_sd               =   3.5102603645643E-04
(PID.TID 0000.0001) %MON dynstat_eta_del2             =   3.0468179802472E-07
(PID.TID 0000.0001) %MON dynstat_uvel_max             =   3.2907571558992E-05
(PID.TID 0000.0001) %MON dynstat_uvel_min             =  -1.3319659886870E-05
(PID.TID 0000.0001) %MON dynstat_uvel_mean            =   1.1287667717349E-05
(PID.TID 0000.0001) %MON dynstat_uvel_sd              =   1.2209285791680E-05
(PID.TID 0000.0001) %MON dynstat_uvel_del2            =   6.3092344492597E-08
(PID.TID 0000.0001) %MON dynstat_vvel_max             =   1.8512953349156E-05
(PID.TID 0000.0001) %MON dynstat_vvel_min             =  -1.7994176989181E-05
(PID.TID 0000.0001) %MON dynstat_vvel_mean            =  -1.2421483130188E-06
(PID.TID 0000.0001) %MON dynstat_vvel_sd              =   5.4499429672373E-06
(PID.TID 0000.0001) %MON dynstat_vvel_del2            =   2.2290331332098E-08
(PID.TID 0000.0001) %MON dynstat_wvel_max             =   2.8701672632173E-07
(PID.TID 0000.0001) %MON dynstat_wvel_min             =  -2.8630564797155E-07
(PID.TID 0000.0001) %MON dynstat_wvel_mean            =   8.5614255638309E-24
(PID.TID 0000.0001) %MON dynstat_wvel_sd              =   1.6482649782438E-07
(PID.TID 0000.0001) %MON dynstat_wvel_del2            =   1.1025092951662E-10
(PID.TID 0000.0001) %MON dynstat_theta_max            =   2.0000000000000E+01
(PID.TID 0000.0001) %MON dynstat_theta_min            =   2.0000000000000E+01
(PID.TID 0000.0001) %MON dynstat_theta_mean           =   2.0000000000000E+01
(PID.TID 0000.0001) %MON dynstat_theta_sd             =   0.0000000000000E+00
(PID.TID 0000.0001) %MON dynstat_theta_del2           =   0.0000000000000E+00
(PID.TID 0000.0001) %MON dynstat_salt_max             =   1.0000000000000E+01
(PID.TID 0000.0001) %MON dynstat_salt_min             =   1.0000000000000E+01
(PID.TID 0000.0001) %MON dynstat_salt_mean            =   1.0000000000000E+01
(PID.TID 0000.0001) %MON dynstat_salt_sd              =   0.0000000000000E+00
(PID.TID 0000.0001) %MON dynstat_salt_del2            =   0.0000000000000E+00
(PID.TID 0000.0001) %MON advcfl_uvel_max              =   1.9744542935395E-06
(PID.TID 0000.0001) %MON advcfl_vvel_max              =   1.1107772009494E-06
(PID.TID 0000.0001) %MON advcfl_wvel_max              =   1.3776802863443E-07
(PID.TID 0000.0001) %MON advcfl_W_hf_max              =   0.0000000000000E+00
(PID.TID 0000.0001) %MON pe_b_mean                    =   1.2087811198318E-10
(PID.TID 0000.0001) %MON ke_max                       =   5.4530303504179E-10
(PID.TID 0000.0001) %MON ke_mean                      =   1.5125363511387E-10
(PID.TID 0000.0001) %MON ke_vol                       =   6.9620000000000E+15
(PID.TID 0000.0001) %MON vort_r_min                   =  -9.2564766745781E-10
(PID.TID 0000.0001) %MON vort_r_max                   =   9.2455214854985E-10
(PID.TID 0000.0001) %MON vort_a_mean                  =   1.0590000000000E-04
(PID.TID 0000.0001) %MON vort_a_sd                    =   3.4599862983399E-06
(PID.TID 0000.0001) %MON vort_p_mean                  =   1.1128474576271E-04
(PID.TID 0000.0001) %MON vort_p_sd                    =   4.1218896021076E-05
(PID.TID 0000.0001) %MON surfExpan_theta_mean         =   1.0868997297832E-21
(PID.TID 0000.0001) %MON surfExpan_salt_mean          =   5.4344986489161E-22
(PID.TID 0000.0001) // =======================================================
(PID.TID 0000.0001) // End MONITOR dynamic field statistics
(PID.TID 0000.0001) // =======================================================
 cg2d: Sum(rhs),rhsMax =   5.51646195390276E-09  4.68697242548704E-04
(PID.TID 0000.0001)                    cg2d_init_res =    1.86594477165272E+00
(PID.TID 0000.0001)                       cg2d_iters =   101
(PID.TID 0000.0001)                         cg2d_res =    8.17997859731756E-08
(PID.TID 0000.0001) // =======================================================
(PID.TID 0000.0001) // Begin MONITOR dynamic field statistics
(PID.TID 0000.0001) // =======================================================
(PID.TID 0000.0001) %MON time_tsnumber                =                     3
(PID.TID 0000.0001) %MON time_secondsf                =   3.6000000000000E+03
(PID.TID 0000.0001) %MON dynstat_eta_max              =   1.0025466645951E-03
(PID.TID 0000.0001) %MON dynstat_eta_min              =  -1.0008899950901E-03
(PID.TID 0000.0001) %MON dynstat_eta_mean             =   2.1037438449350E-14
(PID.TID 0000.0001) %MON dynstat_eta_sd               =   5.0985228723396E-04
(PID.TID 0000.0001) %MON dynstat_eta_del2             =   3.5216706549525E-07
(PID.TID 0000.0001) %MON dynstat_uvel_max             =   3.7594045977254E-05
(PID.TID 0000.0001) %MON dynstat_uvel_min             =  -2.8264287531564E-05
(PID.TID 0000.0001) %MON dynstat_uvel_mean            =   9.1369201945671E-06
(PID.TID 0000.0001) %MON dynstat_uvel_sd              =   1.6868439193567E-05
(PID.TID 0000.0001) %MON dynstat_uvel_del2            =   8.4315445301916E-08
(PID.TID 0000.0001) %MON dynstat_vvel_max             =   2.9572069440014E-05
(PID.TID 0000.0001) %MON dynstat_vvel_min             =  -2.7460381019481E-05
(PID.TID 0000.0001) %MON dynstat_vvel_mean            =  -1.7193142563760E-06
(PID.TID 0000.0001) %MON dynstat_vvel_sd              =   8.7384967741039E-06
(PID.TID 0000.0001) %MON dynstat_vvel_del2            =   3.4182519983018E-08
(PID.TID 0000.0001) %MON dynstat_wvel_max             =   2.0683211324375E-07
(PID.TID 0000.0001) %MON dynstat_wvel_min             =  -2.0639979271184E-07
(PID.TID 0000.0001) %MON dynstat_wvel_mean            =  -6.4210691728732E-23
(PID.TID 0000.0001) %MON dynstat_wvel_sd              =   1.3563249671941E-07
(PID.TID 0000.0001) %MON dynstat_wvel_del2            =   1.1595293642507E-10
(PID.TID 0000.0001) %MON dynstat_theta_max            =   2.0000000000000E+01
(PID.TID 0000.0001) %MON dynstat_theta_min            =   2.0000000000000E+01
(PID.TID 0000.0001) %MON dynstat_theta_mean           =   2.0000000000000E+01
(PID.TID 0000.0001) %MON dynstat_theta_sd             =   0.0000000000000E+00
(PID.TID 0000.0001) %MON dynstat_theta_del2           =   0.0000000000000E+00
(PID.TID 0000.0001) %MON dynstat_salt_max             =   1.0000000000000E+01
(PID.TID 0000.0001) %MON dynstat_salt_min             =   1.0000000000000E+01
(PID.TID 0000.0001) %MON dynstat_salt_mean            =   1.0000000000000E+01
(PID.TID 0000.0001) %MON dynstat_salt_sd              =   0.0000000000000E+00
(PID.TID 0000.0001) %MON dynstat_salt_del2            =   0.0000000000000E+00
(PID.TID 0000.0001) %MON advcfl_uvel_max              =   2.2556427586352E-06
(PID.TID 0000.0001) %MON advcfl_vvel_max              =   1.7743241664008E-06
(PID.TID 0000.0001) %MON advcfl_wvel_max              =   9.9279414357000E-08
(PID.TID 0000.0001) %MON advcfl_W_hf_max              =   0.0000000000000E+00
(PID.TID 0000.0001) %MON pe_b_mean                    =   2.5501031705654E-10
(PID.TID 0000.0001) %MON ke_max                       =   7.1675260160899E-10
(PID.TID 0000.0001) %MON ke_mean                      =   2.1988140079174E-10
(PID.TID 0000.0001) %MON ke_vol                       =   6.9620000000000E+15
(PID.TID 0000.0001) %MON vort_r_min                   =  -1.4786034720007E-09
(PID.TID 0000.0001) %MON vort_r_max                   =   1.4759679084242E-09
(PID.TID 0000.0001) %MON vort_a_mean                  =   1.0590000000000E-04
(PID.TID 0000.0001) %MON vort_a_sd                    =   3.4599803928738E-06
(PID.TID 0000.0001) %MON vort_p_mean                  =   1.1128474576271E-04
(PID.TID 0000.0001) %MON vort_p_sd                    =   4.1218883492200E-05
(PID.TID 0000.0001) %MON surfExpan_theta_mean         =   1.6721534304357E-22
(PID.TID 0000.0001) %MON surfExpan_salt_mean          =   8.3607671521786E-23
(PID.TID 0000.0001) // =======================================================
(PID.TID 0000.0001) // End MONITOR dynamic field statistics
(PID.TID 0000.0001) // =======================================================
 cg2d: Sum(rhs),rhsMax =  -8.42813818735522E-09  4.82711414142797E-04
(PID.TID 0000.0001)                    cg2d_init_res =    1.24219299675558E+00
(PID.TID 0000.0001)                       cg2d_iters =   100
(PID.TID 0000.0001)                         cg2d_res =    9.89819424540569E-08
(PID.TID 0000.0001) // =======================================================
(PID.TID 0000.0001) // Begin MONITOR dynamic field statistics
(PID.TID 0000.0001) // =======================================================
(PID.TID 0000.0001) %MON time_tsnumber                =                     4
(PID.TID 0000.0001) %MON time_secondsf                =   4.8000000000000E+03
(PID.TID 0000.0001) %MON dynstat_eta_max              =   1.1061504071643E-03
(PID.TID 0000.0001) %MON dynstat_eta_min              =  -1.1043122031639E-03
(PID.TID 0000.0001) %MON dynstat_eta_mean             =   3.8517917719630E-14
(PID.TID 0000.0001) %MON dynstat_eta_sd               =   5.9307326714862E-04
(PID.TID 0000.0001) %MON dynstat_eta_del2             =   4.4333639799535E-07
(PID.TID 0000.0001) %MON dynstat_uvel_max             =   3.8321337317447E-05
(PID.TID 0000.0001) %MON dynstat_uvel_min             =  -4.7589747449979E-05
(PID.TID 0000.0001) %MON dynstat_uvel_mean            =   4.7042529096160E-06
(PID.TID 0000.0001) %MON dynstat_uvel_sd              =   2.1736003045261E-05
(PID.TID 0000.0001) %MON dynstat_uvel_del2            =   1.0585457100138E-07
(PID.TID 0000.0001) %MON dynstat_vvel_max             =   4.0239001304325E-05
(PID.TID 0000.0001) %MON dynstat_vvel_min             =  -3.5941624736132E-05
(PID.TID 0000.0001) %MON dynstat_vvel_mean            =  -1.2682500848059E-06
(PID.TID 0000.0001) %MON dynstat_vvel_sd              =   1.1685735006870E-05
(PID.TID 0000.0001) %MON dynstat_vvel_del2            =   4.4423487603451E-08
(PID.TID 0000.0001) %MON dynstat_wvel_max             =   1.1892968048066E-07
(PID.TID 0000.0001) %MON dynstat_wvel_min             =  -1.1807276614282E-07
(PID.TID 0000.0001) %MON dynstat_wvel_mean            =  -2.1403563909577E-23
(PID.TID 0000.0001) %MON dynstat_wvel_sd              =   7.1715274245344E-08
(PID.TID 0000.0001) %MON dynstat_wvel_del2            =   8.5973619125636E-11
(PID.TID 0000.0001) %MON dynstat_theta_max            =   2.0000000000000E+01
(PID.TID 0000.0001) %MON dynstat_theta_min            =   2.0000000000000E+01
(PID.TID 0000.0001) %MON dynstat_theta_mean           =   2.0000000000000E+01
(PID.TID 0000.0001) %MON dynstat_theta_sd             =   0.0000000000000E+00
(PID.TID 0000.0001) %MON dynstat_theta_del2           =   0.0000000000000E+00
(PID.TID 0000.0001) %MON dynstat_salt_max             =   1.0000000000000E+01
(PID.TID 0000.0001) %MON dynstat_salt_min             =   1.0000000000000E+01
(PID.TID 0000.0001) %MON dynstat_salt_mean            =   1.0000000000000E+01
(PID.TID 0000.0001) %MON dynstat_salt_sd              =   0.0000000000000E+00
(PID.TID 0000.0001) %MON dynstat_salt_del2            =   0.0000000000000E+00
(PID.TID 0000.0001) %MON advcfl_uvel_max              =   2.8553848469988E-06
(PID.TID 0000.0001) %MON advcfl_vvel_max              =   2.4143400782595E-06
(PID.TID 0000.0001) %MON advcfl_wvel_max              =   5.7086246630718E-08
(PID.TID 0000.0001) %MON advcfl_W_hf_max              =   0.0000000000000E+00
(PID.TID 0000.0001) %MON pe_b_mean                    =   3.4505291810241E-10
(PID.TID 0000.0001) %MON ke_max                       =   1.1323830423192E-09
(PID.TID 0000.0001) %MON ke_mean                      =   3.1101206538541E-10
(PID.TID 0000.0001) %MON ke_vol                       =   6.9620000000000E+15
(PID.TID 0000.0001) %MON vort_r_min                   =  -2.3794873724990E-09
(PID.TID 0000.0001) %MON vort_r_max                   =   2.3768878108321E-09
(PID.TID 0000.0001) %MON vort_a_mean                  =   1.0590000000000E-04
(PID.TID 0000.0001) %MON vort_a_sd                    =   3.4599682193769E-06
(PID.TID 0000.0001) %MON vort_p_mean                  =   1.1128474576271E-04
(PID.TID 0000.0001) %MON vort_p_sd                    =   4.1218868789995E-05
(PID.TID 0000.0001) %MON surfExpan_theta_mean         =   2.5082301456536E-22
(PID.TID 0000.0001) %MON surfExpan_salt_mean          =   1.2541150728268E-22
(PID.TID 0000.0001) // =======================================================
(PID.TID 0000.0001) // End MONITOR dynamic field statistics
(PID.TID 0000.0001) // =======================================================
 cg2d: Sum(rhs),rhsMax =  -1.51176635654338E-08  4.92733895556949E-04
(PID.TID 0000.0001)                    cg2d_init_res =    9.07487550020532E-01
(PID.TID 0000.0001)                       cg2d_iters =   101
(PID.TID 0000.0001)                         cg2d_res =    8.20688117772224E-08
(PID.TID 0000.0001) // =======================================================
(PID.TID 0000.0001) // Begin MONITOR dynamic field statistics
(PID.TID 0000.0001) // =======================================================
(PID.TID 0000.0001) %MON time_tsnumber                =                     5
(PID.TID 0000.0001) %MON time_secondsf                =   6.0000000000000E+03
(PID.TID 0000.0001) %MON dynstat_eta_max              =   1.1084803098865E-03
(PID.TID 0000.0001) %MON dynstat_eta_min              =  -1.1070178961776E-03
(PID.TID 0000.0001) %MON dynstat_eta_mean             =   4.7956116546745E-14
(PID.TID 0000.0001) %MON dynstat_eta_sd               =   5.9840968654762E-04
(PID.TID 0000.0001) %MON dynstat_eta_del2             =   5.1869012823508E-07
(PID.TID 0000.0001) %MON dynstat_uvel_max             =   3.9121455067508E-05
(PID.TID 0000.0001) %MON dynstat_uvel_min             =  -6.7792059180365E-05
(PID.TID 0000.0001) %MON dynstat_uvel_mean            =   2.6027955037748E-07
(PID.TID 0000.0001) %MON dynstat_uvel_sd              =   2.7051929685613E-05
(PID.TID 0000.0001) %MON dynstat_uvel_del2            =   1.2817591941005E-07
(PID.TID 0000.0001) %MON dynstat_vvel_max             =   5.0472088517574E-05
(PID.TID 0000.0001) %MON dynstat_vvel_min             =  -4.4197056720347E-05
(PID.TID 0000.0001) %MON dynstat_vvel_mean            =  -3.0567476580545E-07
(PID.TID 0000.0001) %MON dynstat_vvel_sd              =   1.4457875663356E-05
(PID.TID 0000.0001) %MON dynstat_vvel_del2            =   5.3697077923818E-08
(PID.TID 0000.0001) %MON dynstat_wvel_max             =   1.8393892242857E-08
(PID.TID 0000.0001) %MON dynstat_wvel_min             =  -1.7380284805007E-08
(PID.TID 0000.0001) %MON dynstat_wvel_mean            =   2.6754454886972E-25
(PID.TID 0000.0001) %MON dynstat_wvel_sd              =   9.4276272536108E-09
(PID.TID 0000.0001) %MON dynstat_wvel_del2            =   7.4800918030465E-11
(PID.TID 0000.0001) %MON dynstat_theta_max            =   2.0000000000000E+01
(PID.TID 0000.0001) %MON dynstat_theta_min            =   2.0000000000000E+01
(PID.TID 0000.0001) %MON dynstat_theta_mean           =   2.0000000000000E+01
(PID.TID 0000.0001) %MON dynstat_theta_sd             =   0.0000000000000E+00
(PID.TID 0000.0001) %MON dynstat_theta_del2           =   0.0000000000000E+00
(PID.TID 0000.0001) %MON dynstat_salt_max             =   1.0000000000000E+01
(PID.TID 0000.0001) %MON dynstat_salt_min             =   1.0000000000000E+01
(PID.TID 0000.0001) %MON dynstat_salt_mean            =   1.0000000000000E+01
(PID.TID 0000.0001) %MON dynstat_salt_sd              =   0.0000000000000E+00
(PID.TID 0000.0001) %MON dynstat_salt_del2            =   0.0000000000000E+00
(PID.TID 0000.0001) %MON advcfl_uvel_max              =   4.0675235508219E-06
(PID.TID 0000.0001) %MON advcfl_vvel_max              =   3.0283253110545E-06
(PID.TID 0000.0001) %MON advcfl_wvel_max              =   8.8290682765713E-09
(PID.TID 0000.0001) %MON advcfl_W_hf_max              =   0.0000000000000E+00
(PID.TID 0000.0001) %MON pe_b_mean                    =   3.5129036404789E-10
(PID.TID 0000.0001) %MON ke_max                       =   2.2978481354920E-09
(PID.TID 0000.0001) %MON ke_mean                      =   4.6252456401113E-10
(PID.TID 0000.0001) %MON ke_vol                       =   6.9620000000000E+15
(PID.TID 0000.0001) %MON vort_r_min                   =  -3.3896029590183E-09
(PID.TID 0000.0001) %MON vort_r_max                   =   3.3883259300331E-09
(PID.TID 0000.0001) %MON vort_a_mean                  =   1.0590000000000E-04
(PID.TID 0000.0001) %MON vort_a_sd                    =   3.4599560224638E-06
(PID.TID 0000.0001) %MON vort_p_mean                  =   1.1128474576271E-04
(PID.TID 0000.0001) %MON vort_p_sd                    =   4.1218854032261E-05
(PID.TID 0000.0001) %MON surfExpan_theta_mean         =  -1.0973506887234E-22
(PID.TID 0000.0001) %MON surfExpan_salt_mean          =  -5.4867534436172E-23
(PID.TID 0000.0001) // =======================================================
(PID.TID 0000.0001) // End MONITOR dynamic field statistics
(PID.TID 0000.0001) // =======================================================
 cg2d: Sum(rhs),rhsMax =  -1.85679809305839E-08  4.99471441359083E-04
(PID.TID 0000.0001)                    cg2d_init_res =    9.59300531781533E-01
(PID.TID 0000.0001)                       cg2d_iters =   101
(PID.TID 0000.0001)                         cg2d_res =    7.67520423115797E-08
(PID.TID 0000.0001) // =======================================================
(PID.TID 0000.0001) // Begin MONITOR dynamic field statistics
(PID.TID 0000.0001) // =======================================================
(PID.TID 0000.0001) %MON time_tsnumber                =                     6
(PID.TID 0000.0001) %MON time_secondsf                =   7.2000000000000E+03
(PID.TID 0000.0001) %MON dynstat_eta_max              =   1.0424529215788E-03
(PID.TID 0000.0001) %MON dynstat_eta_min              =  -1.0414472970050E-03
(PID.TID 0000.0001) %MON dynstat_eta_mean             =   5.7011675266177E-14
(PID.TID 0000.0001) %MON dynstat_eta_sd               =   5.5116253327997E-04
(PID.TID 0000.0001) %MON dynstat_eta_del2             =   5.7970063034815E-07
(PID.TID 0000.0001) %MON dynstat_uvel_max             =   4.2395347501990E-05
(PID.TID 0000.0001) %MON dynstat_uvel_min             =  -8.5915663990883E-05
(PID.TID 0000.0001) %MON dynstat_uvel_mean            =  -2.7028570835928E-06
(PID.TID 0000.0001) %MON dynstat_uvel_sd              =   3.2568337717207E-05
(PID.TID 0000.0001) %MON dynstat_uvel_del2            =   1.5194060424330E-07
(PID.TID 0000.0001) %MON dynstat_vvel_max             =   6.0359086324997E-05
(PID.TID 0000.0001) %MON dynstat_vvel_min             =  -5.3044998067534E-05
(PID.TID 0000.0001) %MON dynstat_vvel_mean            =   5.7930398851167E-07
(PID.TID 0000.0001) %MON dynstat_vvel_sd              =   1.7245607609309E-05
(PID.TID 0000.0001) %MON dynstat_vvel_del2            =   6.2879908908429E-08
(PID.TID 0000.0001) %MON dynstat_wvel_max             =   7.4181939084190E-08
(PID.TID 0000.0001) %MON dynstat_wvel_min             =  -7.3011202571529E-08
(PID.TID 0000.0001) %MON dynstat_wvel_mean            =   3.6386058646281E-23
(PID.TID 0000.0001) %MON dynstat_wvel_sd              =   4.0584925896147E-08
(PID.TID 0000.0001) %MON dynstat_wvel_del2            =   6.8539973358787E-11
(PID.TID 0000.0001) %MON dynstat_theta_max            =   2.0000000000000E+01
(PID.TID 0000.0001) %MON dynstat_theta_min            =   2.0000000000000E+01
(PID.TID 0000.0001) %MON dynstat_theta_mean           =   2.0000000000000E+01
(PID.TID 0000.0001) %MON dynstat_theta_sd             =   0.0000000000000E+00
(PID.TID 0000.0001) %MON dynstat_theta_del2           =   0.0000000000000E+00
(PID.TID 0000.0001) %MON dynstat_salt_max             =   1.0000000000000E+01
(PID.TID 0000.0001) %MON dynstat_salt_min             =   1.0000000000000E+01
(PID.TID 0000.0001) %MON dynstat_salt_mean            =   1.0000000000000E+01
(PID.TID 0000.0001) %MON dynstat_salt_sd              =   0.0000000000000E+00
(PID.TID 0000.0001) %MON dynstat_salt_del2            =   0.0000000000000E+00
(PID.TID 0000.0001) %MON advcfl_uvel_max              =   5.1549398394530E-06
(PID.TID 0000.0001) %MON advcfl_vvel_max              =   3.6215451794998E-06
(PID.TID 0000.0001) %MON advcfl_wvel_max              =   3.5607330760411E-08
(PID.TID 0000.0001) %MON advcfl_W_hf_max              =   0.0000000000000E+00
(PID.TID 0000.0001) %MON pe_b_mean                    =   2.9800831546786E-10
(PID.TID 0000.0001) %MON ke_max                       =   3.6894413253987E-09
(PID.TID 0000.0001) %MON ke_mean                      =   6.7130017554322E-10
(PID.TID 0000.0001) %MON ke_vol                       =   6.9620000000000E+15
(PID.TID 0000.0001) %MON vort_r_min                   =  -4.2957831995441E-09
(PID.TID 0000.0001) %MON vort_r_max                   =   4.2952294890517E-09
(PID.TID 0000.0001) %MON vort_a_mean                  =   1.0590000000000E-04
(PID.TID 0000.0001) %MON vort_a_sd                    =   3.4599479035456E-06
(PID.TID 0000.0001) %MON vort_p_mean                  =   1.1128474576271E-04
(PID.TID 0000.0001) %MON vort_p_sd                    =   4.1218840640593E-05
(PID.TID 0000.0001) %MON surfExpan_theta_mean         =  -6.2705753641339E-23
(PID.TID 0000.0001) %MON surfExpan_salt_mean          =  -3.1352876820670E-23
(PID.TID 0000.0001) // =======================================================
(PID.TID 0000.0001) // End MONITOR dynamic field statistics
(PID.TID 0000.0001) // =======================================================
 cg2d: Sum(rhs),rhsMax =  -2.18488054315458E-08  5.04618839525006E-04
(PID.TID 0000.0001)                    cg2d_init_res =    9.71710352317710E-01
(PID.TID 0000.0001)                       cg2d_iters =    98
(PID.TID 0000.0001)                         cg2d_res =    9.87832301863210E-08
(PID.TID 0000.0001) // =======================================================
(PID.TID 0000.0001) // Begin MONITOR dynamic field statistics
(PID.TID 0000.0001) // =======================================================
(PID.TID 0000.0001) %MON time_tsnumber                =                     7
(PID.TID 0000.0001) %MON time_secondsf                =   8.4000000000000E+03
(PID.TID 0000.0001) %MON dynstat_eta_max              =   9.5224873860030E-04
(PID.TID 0000.0001) %MON dynstat_eta_min              =  -9.5143225792482E-04
(PID.TID 0000.0001) %MON dynstat_eta_mean             =   9.1484001880745E-14
(PID.TID 0000.0001) %MON dynstat_eta_sd               =   4.8613052736108E-04
(PID.TID 0000.0001) %MON dynstat_eta_del2             =   6.2999163692497E-07
(PID.TID 0000.0001) %MON dynstat_uvel_max             =   4.8753837840744E-05
(PID.TID 0000.0001) %MON dynstat_uvel_min             =  -1.0103671361569E-04
(PID.TID 0000.0001) %MON dynstat_uvel_mean            =  -3.7158403060800E-06
(PID.TID 0000.0001) %MON dynstat_uvel_sd              =   3.8088714834883E-05
(PID.TID 0000.0001) %MON dynstat_uvel_del2            =   1.7724405545522E-07
(PID.TID 0000.0001) %MON dynstat_vvel_max             =   6.9787129023862E-05
(PID.TID 0000.0001) %MON dynstat_vvel_min             =  -6.2665753297450E-05
(PID.TID 0000.0001) %MON dynstat_vvel_mean            =   9.5404537839933E-07
(PID.TID 0000.0001) %MON dynstat_vvel_sd              =   2.0101830811163E-05
(PID.TID 0000.0001) %MON dynstat_vvel_del2            =   7.2451485375536E-08
(PID.TID 0000.0001) %MON dynstat_wvel_max             =   1.0616116976189E-07
(PID.TID 0000.0001) %MON dynstat_wvel_min             =  -1.0530123090691E-07
(PID.TID 0000.0001) %MON dynstat_wvel_mean            =  -4.2807127819154E-24
(PID.TID 0000.0001) %MON dynstat_wvel_sd              =   5.5929985836972E-08
(PID.TID 0000.0001) %MON dynstat_wvel_del2            =   6.4827227772196E-11
(PID.TID 0000.0001) %MON dynstat_theta_max            =   2.0000000000000E+01
(PID.TID 0000.0001) %MON dynstat_theta_min            =   2.0000000000000E+01
(PID.TID 0000.0001) %MON dynstat_theta_mean           =   2.0000000000000E+01
(PID.TID 0000.0001) %MON dynstat_theta_sd             =   0.0000000000000E+00
(PID.TID 0000.0001) %MON dynstat_theta_del2           =   0.0000000000000E+00
(PID.TID 0000.0001) %MON dynstat_salt_max             =   1.0000000000000E+01
(PID.TID 0000.0001) %MON dynstat_salt_min             =   1.0000000000000E+01
(PID.TID 0000.0001) %MON dynstat_salt_mean            =   1.0000000000000E+01
(PID.TID 0000.0001) %MON dynstat_salt_sd              =   0.0000000000000E+00
(PID.TID 0000.0001) %MON dynstat_salt_del2            =   0.0000000000000E+00
(PID.TID 0000.0001) %MON advcfl_uvel_max              =   6.0622028169413E-06
(PID.TID 0000.0001) %MON advcfl_vvel_max              =   4.1872277414317E-06
(PID.TID 0000.0001) %MON advcfl_wvel_max              =   5.0957361485707E-08
(PID.TID 0000.0001) %MON advcfl_W_hf_max              =   0.0000000000000E+00
(PID.TID 0000.0001) %MON pe_b_mean                    =   2.3183275472935E-10
(PID.TID 0000.0001) %MON ke_max                       =   5.1031514938700E-09
(PID.TID 0000.0001) %MON ke_mean                      =   9.1893207921088E-10
(PID.TID 0000.0001) %MON ke_vol                       =   6.9620000000000E+15
(PID.TID 0000.0001) %MON vort_r_min                   =  -5.0518356807844E-09
(PID.TID 0000.0001) %MON vort_r_max                   =   5.0514761890139E-09
(PID.TID 0000.0001) %MON vort_a_mean                  =   1.0590000000000E-04
(PID.TID 0000.0001) %MON vort_a_sd                    =   3.4599451507708E-06
(PID.TID 0000.0001) %MON vort_p_mean                  =   1.1128474576271E-04
(PID.TID 0000.0001) %MON vort_p_sd                    =   4.1218829100842E-05
(PID.TID 0000.0001) %MON surfExpan_theta_mean         =  -3.7623452184804E-22
(PID.TID 0000.0001) %MON surfExpan_salt_mean          =  -1.8811726092402E-22
(PID.TID 0000.0001) // =======================================================
(PID.TID 0000.0001) // End MONITOR dynamic field statistics
(PID.TID 0000.0001) // =======================================================
 cg2d: Sum(rhs),rhsMax =  -3.46845396848039E-08  5.10084701901661E-04
(PID.TID 0000.0001)                    cg2d_init_res =    8.23062793979490E-01
(PID.TID 0000.0001)                       cg2d_iters =    98
(PID.TID 0000.0001)                         cg2d_res =    9.51563187630435E-08
(PID.TID 0000.0001) // =======================================================
(PID.TID 0000.0001) // Begin MONITOR dynamic field statistics
(PID.TID 0000.0001) // =======================================================
(PID.TID 0000.0001) %MON time_tsnumber                =                     8
(PID.TID 0000.0001) %MON time_secondsf                =   9.6000000000000E+03
(PID.TID 0000.0001) %MON dynstat_eta_max              =   8.7603570381693E-04
(PID.TID 0000.0001) %MON dynstat_eta_min              =  -8.7497484289178E-04
(PID.TID 0000.0001) %MON dynstat_eta_mean             =   1.4107239242944E-13
(PID.TID 0000.0001) %MON dynstat_eta_sd               =   4.3186277585130E-04
(PID.TID 0000.0001) %MON dynstat_eta_del2             =   6.7601363538510E-07
(PID.TID 0000.0001) %MON dynstat_uvel_max             =   5.7542834865590E-05
(PID.TID 0000.0001) %MON dynstat_uvel_min             =  -1.1367590173580E-04
(PID.TID 0000.0001) %MON dynstat_uvel_mean            =  -3.1403070114971E-06
(PID.TID 0000.0001) %MON dynstat_uvel_sd              =   4.3564475508566E-05
(PID.TID 0000.0001) %MON dynstat_uvel_del2            =   2.0369121982183E-07
(PID.TID 0000.0001) %MON dynstat_vvel_max             =   7.8777360197682E-05
(PID.TID 0000.0001) %MON dynstat_vvel_min             =  -7.2865066441776E-05
(PID.TID 0000.0001) %MON dynstat_vvel_mean            =   7.1176409385120E-07
(PID.TID 0000.0001) %MON dynstat_vvel_sd              =   2.2996942257548E-05
(PID.TID 0000.0001) %MON dynstat_vvel_del2            =   8.2515999833405E-08
(PID.TID 0000.0001) %MON dynstat_wvel_max             =   9.0910949826894E-08
(PID.TID 0000.0001) %MON dynstat_wvel_min             =  -9.0247027136068E-08
(PID.TID 0000.0001) %MON dynstat_wvel_mean            =   3.2105345864366E-24
(PID.TID 0000.0001) %MON dynstat_wvel_sd              =   4.6950847039499E-08
(PID.TID 0000.0001) %MON dynstat_wvel_del2            =   5.6364217197965E-11
(PID.TID 0000.0001) %MON dynstat_theta_max            =   2.0000000000000E+01
(PID.TID 0000.0001) %MON dynstat_theta_min            =   2.0000000000000E+01
(PID.TID 0000.0001) %MON dynstat_theta_mean           =   2.0000000000000E+01
(PID.TID 0000.0001) %MON dynstat_theta_sd             =   0.0000000000000E+00
(PID.TID 0000.0001) %MON dynstat_theta_del2           =   0.0000000000000E+00
(PID.TID 0000.0001) %MON dynstat_salt_max             =   1.0000000000000E+01
(PID.TID 0000.0001) %MON dynstat_salt_min             =   1.0000000000000E+01
(PID.TID 0000.0001) %MON dynstat_salt_mean            =   1.0000000000000E+01
(PID.TID 0000.0001) %MON dynstat_salt_sd              =   0.0000000000000E+00
(PID.TID 0000.0001) %MON dynstat_salt_del2            =   0.0000000000000E+00
(PID.TID 0000.0001) %MON advcfl_uvel_max              =   6.8205541041479E-06
(PID.TID 0000.0001) %MON advcfl_vvel_max              =   4.7266416118609E-06
(PID.TID 0000.0001) %MON advcfl_wvel_max              =   4.3637255916909E-08
(PID.TID 0000.0001) %MON advcfl_W_hf_max              =   0.0000000000000E+00
(PID.TID 0000.0001) %MON pe_b_mean                    =   1.8296185347984E-10
(PID.TID 0000.0001) %MON ke_max                       =   6.4598112075797E-09
(PID.TID 0000.0001) %MON ke_mean                      =   1.1978921941995E-09
(PID.TID 0000.0001) %MON ke_vol                       =   6.9620000000000E+15
(PID.TID 0000.0001) %MON vort_r_min                   =  -5.6837950867900E-09
(PID.TID 0000.0001) %MON vort_r_max                   =   5.6833241773721E-09
(PID.TID 0000.0001) %MON vort_a_mean                  =   1.0590000000000E-04
(PID.TID 0000.0001) %MON vort_a_sd                    =   3.4599467683863E-06
(PID.TID 0000.0001) %MON vort_p_mean                  =   1.1128474576271E-04
(PID.TID 0000.0001) %MON vort_p_sd                    =   4.1218819122095E-05
(PID.TID 0000.0001) %MON surfExpan_theta_mean         =  -6.2705753641339E-23
(PID.TID 0000.0001) %MON surfExpan_salt_mean          =  -3.1352876820670E-23
(PID.TID 0000.0001) // =======================================================
(PID.TID 0000.0001) // End MONITOR dynamic field statistics
(PID.TID 0000.0001) // =======================================================
 cg2d: Sum(rhs),rhsMax =  -5.27324033328114E-08  5.17364922906288E-04
(PID.TID 0000.0001)                    cg2d_init_res =    6.28460260650171E-01
(PID.TID 0000.0001)                       cg2d_iters =    99
(PID.TID 0000.0001)                         cg2d_res =    9.87831918706272E-08
(PID.TID 0000.0001) // =======================================================
(PID.TID 0000.0001) // Begin MONITOR dynamic field statistics
(PID.TID 0000.0001) // =======================================================
(PID.TID 0000.0001) %MON time_tsnumber                =                     9
(PID.TID 0000.0001) %MON time_secondsf                =   1.0800000000000E+04
(PID.TID 0000.0001) %MON dynstat_eta_max              =   8.3267428768592E-04
(PID.TID 0000.0001) %MON dynstat_eta_min              =  -8.3123625360158E-04
(PID.TID 0000.0001) %MON dynstat_eta_mean             =   1.9814669842762E-13
(PID.TID 0000.0001) %MON dynstat_eta_sd               =   4.0280764801996E-04
(PID.TID 0000.0001) %MON dynstat_eta_del2             =   7.2386343487671E-07
(PID.TID 0000.0001) %MON dynstat_uvel_max             =   6.7537899640286E-05
(PID.TID 0000.0001) %MON dynstat_uvel_min             =  -1.2497066008628E-04
(PID.TID 0000.0001) %MON dynstat_uvel_mean            =  -1.7455272242574E-06
(PID.TID 0000.0001) %MON dynstat_uvel_sd              =   4.9005370222574E-05
(PID.TID 0000.0001) %MON dynstat_uvel_del2            =   2.3061077792984E-07
(PID.TID 0000.0001) %MON dynstat_vvel_max             =   8.7502569285532E-05
(PID.TID 0000.0001) %MON dynstat_vvel_min             =  -8.3242192543845E-05
(PID.TID 0000.0001) %MON dynstat_vvel_mean            =   4.6298501227975E-08
(PID.TID 0000.0001) %MON dynstat_vvel_sd              =   2.5892806056102E-05
(PID.TID 0000.0001) %MON dynstat_vvel_del2            =   9.2933547981025E-08
(PID.TID 0000.0001) %MON dynstat_wvel_max             =   4.8514922741915E-08
(PID.TID 0000.0001) %MON dynstat_wvel_min             =  -4.7886715665770E-08
(PID.TID 0000.0001) %MON dynstat_wvel_mean            =   2.1403563909577E-24
(PID.TID 0000.0001) %MON dynstat_wvel_sd              =   2.5770061822988E-08
(PID.TID 0000.0001) %MON dynstat_wvel_del2            =   5.0907957886813E-11
(PID.TID 0000.0001) %MON dynstat_theta_max            =   2.0000000000000E+01
(PID.TID 0000.0001) %MON dynstat_theta_min            =   2.0000000000000E+01
(PID.TID 0000.0001) %MON dynstat_theta_mean           =   2.0000000000000E+01
(PID.TID 0000.0001) %MON dynstat_theta_sd             =   0.0000000000000E+00
(PID.TID 0000.0001) %MON dynstat_theta_del2           =   0.0000000000000E+00
(PID.TID 0000.0001) %MON dynstat_salt_max             =   1.0000000000000E+01
(PID.TID 0000.0001) %MON dynstat_salt_min             =   1.0000000000000E+01
(PID.TID 0000.0001) %MON dynstat_salt_mean            =   1.0000000000000E+01
(PID.TID 0000.0001) %MON dynstat_salt_sd              =   0.0000000000000E+00
(PID.TID 0000.0001) %MON dynstat_salt_del2            =   0.0000000000000E+00
(PID.TID 0000.0001) %MON advcfl_uvel_max              =   7.4982396051770E-06
(PID.TID 0000.0001) %MON advcfl_vvel_max              =   5.2501541571319E-06
(PID.TID 0000.0001) %MON advcfl_wvel_max              =   2.3287162916119E-08
(PID.TID 0000.0001) %MON advcfl_W_hf_max              =   0.0000000000000E+00
(PID.TID 0000.0001) %MON pe_b_mean                    =   1.5917117527861E-10
(PID.TID 0000.0001) %MON ke_max                       =   7.8084570383545E-09
(PID.TID 0000.0001) %MON ke_mean                      =   1.5114469326037E-09
(PID.TID 0000.0001) %MON ke_vol                       =   6.9620000000000E+15
(PID.TID 0000.0001) %MON vort_r_min                   =  -6.2485330043142E-09
(PID.TID 0000.0001) %MON vort_r_max                   =   6.2477132083662E-09
(PID.TID 0000.0001) %MON vort_a_mean                  =   1.0590000000000E-04
(PID.TID 0000.0001) %MON vort_a_sd                    =   3.4599506411214E-06
(PID.TID 0000.0001) %MON vort_p_mean                  =   1.1128474576271E-04
(PID.TID 0000.0001) %MON vort_p_sd                    =   4.1218810012679E-05
(PID.TID 0000.0001) %MON surfExpan_theta_mean         =  -1.4631342516313E-22
(PID.TID 0000.0001) %MON surfExpan_salt_mean          =  -7.3156712581563E-23
(PID.TID 0000.0001) // =======================================================
(PID.TID 0000.0001) // End MONITOR dynamic field statistics
(PID.TID 0000.0001) // =======================================================
 cg2d: Sum(rhs),rhsMax =  -7.26865536648802E-08  5.27187435515023E-04
(PID.TID 0000.0001)                    cg2d_init_res =    5.44615920652264E-01
(PID.TID 0000.0001)                       cg2d_iters =    99
(PID.TID 0000.0001)                         cg2d_res =    9.56392712075439E-08
(PID.TID 0000.0001) // =======================================================
(PID.TID 0000.0001) // Begin MONITOR dynamic field statistics
(PID.TID 0000.0001) // =======================================================
(PID.TID 0000.0001) %MON time_tsnumber                =                    10
(PID.TID 0000.0001) %MON time_secondsf                =   1.2000000000000E+04
(PID.TID 0000.0001) %MON dynstat_eta_max              =   8.2307063714970E-04
(PID.TID 0000.0001) %MON dynstat_eta_min              =  -8.2121557416531E-04
(PID.TID 0000.0001) %MON dynstat_eta_mean             =   2.5976544089510E-13
(PID.TID 0000.0001) %MON dynstat_eta_sd               =   4.0008689352584E-04
(PID.TID 0000.0001) %MON dynstat_eta_del2             =   7.7767320162358E-07
(PID.TID 0000.0001) %MON dynstat_uvel_max             =   7.7557091260298E-05
(PID.TID 0000.0001) %MON dynstat_uvel_min             =  -1.3608934433106E-04
(PID.TID 0000.0001) %MON dynstat_uvel_mean            =  -2.9388852697674E-07
(PID.TID 0000.0001) %MON dynstat_uvel_sd              =   5.4418922499461E-05
(PID.TID 0000.0001) %MON dynstat_uvel_del2            =   2.5739161751619E-07
(PID.TID 0000.0001) %MON dynstat_vvel_max             =   9.6224307241564E-05
(PID.TID 0000.0001) %MON dynstat_vvel_min             =  -9.3414767244986E-05
(PID.TID 0000.0001) %MON dynstat_vvel_mean            =  -7.0249295369431E-07
(PID.TID 0000.0001) %MON dynstat_vvel_sd              =   2.8768232810848E-05
(PID.TID 0000.0001) %MON dynstat_vvel_del2            =   1.0347614627147E-07
(PID.TID 0000.0001) %MON dynstat_wvel_max             =   2.0346075187520E-08
(PID.TID 0000.0001) %MON dynstat_wvel_min             =  -2.0816530472005E-08
(PID.TID 0000.0001) %MON dynstat_wvel_mean            =  -2.1403563909577E-24
(PID.TID 0000.0001) %MON dynstat_wvel_sd              =   1.2304940331287E-08
(PID.TID 0000.0001) %MON dynstat_wvel_del2            =   5.3455118846791E-11
(PID.TID 0000.0001) %MON dynstat_theta_max            =   2.0000000000000E+01
(PID.TID 0000.0001) %MON dynstat_theta_min            =   2.0000000000000E+01
(PID.TID 0000.0001) %MON dynstat_theta_mean           =   2.0000000000000E+01
(PID.TID 0000.0001) %MON dynstat_theta_sd             =   0.0000000000000E+00
(PID.TID 0000.0001) %MON dynstat_theta_del2           =   0.0000000000000E+00
(PID.TID 0000.0001) %MON dynstat_salt_max             =   1.0000000000000E+01
(PID.TID 0000.0001) %MON dynstat_salt_min             =   1.0000000000000E+01
(PID.TID 0000.0001) %MON dynstat_salt_mean            =   1.0000000000000E+01
(PID.TID 0000.0001) %MON dynstat_salt_sd              =   0.0000000000000E+00
(PID.TID 0000.0001) %MON dynstat_salt_del2            =   0.0000000000000E+00
(PID.TID 0000.0001) %MON advcfl_uvel_max              =   8.1653606598634E-06
(PID.TID 0000.0001) %MON advcfl_vvel_max              =   5.7734584344939E-06
(PID.TID 0000.0001) %MON advcfl_wvel_max              =   9.9919346265624E-09
(PID.TID 0000.0001) %MON advcfl_W_hf_max              =   0.0000000000000E+00
(PID.TID 0000.0001) %MON pe_b_mean                    =   1.5702820144611E-10
(PID.TID 0000.0001) %MON ke_max                       =   9.2589124405544E-09
(PID.TID 0000.0001) %MON ke_mean                      =   1.8626897651602E-09
(PID.TID 0000.0001) %MON ke_vol                       =   6.9620000000000E+15
(PID.TID 0000.0001) %MON vort_r_min                   =  -6.8044672165528E-09
(PID.TID 0000.0001) %MON vort_r_max                   =   6.8032674412617E-09
(PID.TID 0000.0001) %MON vort_a_mean                  =   1.0590000000000E-04
(PID.TID 0000.0001) %MON vort_a_sd                    =   3.4599546735362E-06
(PID.TID 0000.0001) %MON vort_p_mean                  =   1.1128474576271E-04
(PID.TID 0000.0001) %MON vort_p_sd                    =   4.1218801058368E-05
(PID.TID 0000.0001) %MON surfExpan_theta_mean         =   8.3607671521786E-23
(PID.TID 0000.0001) %MON surfExpan_salt_mean          =   4.1803835760893E-23
(PID.TID 0000.0001) // =======================================================
(PID.TID 0000.0001) // End MONITOR dynamic field statistics
(PID.TID 0000.0001) // =======================================================
(PID.TID 0000.0001) %CHECKPOINT        10 ckptA
(PID.TID 0000.0001)   Seconds in section "ALL                    [THE_MODEL_MAIN]":
(PID.TID 0000.0001)           User time:  2.66000009
(PID.TID 0000.0001)         System time:  0.150000006
(PID.TID 0000.0001)     Wall clock time:  3.16622996
(PID.TID 0000.0001)          No. starts: 1
(PID.TID 0000.0001)           No. stops: 1
(PID.TID 0000.0001)   Seconds in section "INITIALISE_FIXED       [THE_MODEL_MAIN]":
(PID.TID 0000.0001)           User time:  0.850000024
(PID.TID 0000.0001)         System time:  0.150000006
(PID.TID 0000.0001)     Wall clock time:  1.18276405
(PID.TID 0000.0001)          No. starts: 1
(PID.TID 0000.0001)           No. stops: 1
(PID.TID 0000.0001)   Seconds in section "THE_MAIN_LOOP          [THE_MODEL_MAIN]":
(PID.TID 0000.0001)           User time:  1.70999992
(PID.TID 0000.0001)         System time:  0.
(PID.TID 0000.0001)     Wall clock time:  1.8860321
(PID.TID 0000.0001)          No. starts: 1
(PID.TID 0000.0001)           No. stops: 1
(PID.TID 0000.0001)   Seconds in section "INITIALISE_VARIA    [THE_MAIN_LOOP]":
(PID.TID 0000.0001)           User time:  0.00999999046
(PID.TID 0000.0001)         System time:  0.
(PID.TID 0000.0001)     Wall clock time:  0.00961995125
(PID.TID 0000.0001)          No. starts: 1
(PID.TID 0000.0001)           No. stops: 1
(PID.TID 0000.0001)   Seconds in section "MONITOR             [THE_MAIN_LOOP]":
(PID.TID 0000.0001)           User time:  0.
(PID.TID 0000.0001)         System time:  0.
(PID.TID 0000.0001)     Wall clock time:  0.00845193863
(PID.TID 0000.0001)          No. starts: 1
(PID.TID 0000.0001)           No. stops: 1
(PID.TID 0000.0001)   Seconds in section "DO_THE_MODEL_IO     [THE_MAIN_LOOP]":
(PID.TID 0000.0001)           User time:  0.0600000024
(PID.TID 0000.0001)         System time:  0.
(PID.TID 0000.0001)     Wall clock time:  0.0615451336
(PID.TID 0000.0001)          No. starts: 1
(PID.TID 0000.0001)           No. stops: 1
(PID.TID 0000.0001)   Seconds in section "MAIN LOOP           [THE_MAIN_LOOP]":
(PID.TID 0000.0001)           User time:  1.63999993
(PID.TID 0000.0001)         System time:  0.
(PID.TID 0000.0001)     Wall clock time:  1.80625796
(PID.TID 0000.0001)          No. starts: 1
(PID.TID 0000.0001)           No. stops: 1
(PID.TID 0000.0001)   Seconds in section "FORWARD_STEP        [THE_MAIN_LOOP]":
(PID.TID 0000.0001)           User time:  1.63999993
(PID.TID 0000.0001)         System time:  0.
(PID.TID 0000.0001)     Wall clock time:  1.80593634
(PID.TID 0000.0001)          No. starts: 10
(PID.TID 0000.0001)           No. stops: 10
(PID.TID 0000.0001)   Seconds in section "EXTERNAL_FIELDS_LOAD[FORWARD_STEP]":
(PID.TID 0000.0001)           User time:  0.
(PID.TID 0000.0001)         System time:  0.
(PID.TID 0000.0001)     Wall clock time:  0.000294923782
(PID.TID 0000.0001)          No. starts: 10
(PID.TID 0000.0001)           No. stops: 10
(PID.TID 0000.0001)   Seconds in section "DO_ATMOSPHERIC_PHYS [FORWARD_STEP]":
(PID.TID 0000.0001)           User time:  0.
(PID.TID 0000.0001)         System time:  0.
(PID.TID 0000.0001)     Wall clock time:  0.000288486481
(PID.TID 0000.0001)          No. starts: 10
(PID.TID 0000.0001)           No. stops: 10
(PID.TID 0000.0001)   Seconds in section "DO_OCEANIC_PHYS     [FORWARD_STEP]":
(PID.TID 0000.0001)           User time:  0.0200001001
(PID.TID 0000.0001)         System time:  0.
(PID.TID 0000.0001)     Wall clock time:  0.00992894173
(PID.TID 0000.0001)          No. starts: 10
(PID.TID 0000.0001)           No. stops: 10
(PID.TID 0000.0001)   Seconds in section "THERMODYNAMICS      [FORWARD_STEP]":
(PID.TID 0000.0001)           User time:  0.0499999523
(PID.TID 0000.0001)         System time:  0.
(PID.TID 0000.0001)     Wall clock time:  0.0564084053
(PID.TID 0000.0001)          No. starts: 10
(PID.TID 0000.0001)           No. stops: 10
(PID.TID 0000.0001)   Seconds in section "DYNAMICS            [FORWARD_STEP]":
(PID.TID 0000.0001)           User time:  0.100000024
(PID.TID 0000.0001)         System time:  0.
(PID.TID 0000.0001)     Wall clock time:  0.123177528
(PID.TID 0000.0001)          No. starts: 10
(PID.TID 0000.0001)           No. stops: 10
(PID.TID 0000.0001)   Seconds in section "SOLVE_FOR_PRESSURE  [FORWARD_STEP]":
(PID.TID 0000.0001)           User time:  1.29000002
(PID.TID 0000.0001)         System time:  0.
(PID.TID 0000.0001)     Wall clock time:  1.41769171
(PID.TID 0000.0001)          No. starts: 10
(PID.TID 0000.0001)           No. stops: 10
(PID.TID 0000.0001)   Seconds in section "UV_CORRECTION_STEP  [FORWARD_STEP]":
(PID.TID 0000.0001)           User time:  0.
(PID.TID 0000.0001)         System time:  0.
(PID.TID 0000.0001)     Wall clock time:  0.011475563
(PID.TID 0000.0001)          No. starts: 10
(PID.TID 0000.0001)           No. stops: 10
(PID.TID 0000.0001)   Seconds in section "TS_CORRECTION_STEP  [FORWARD_STEP]":
(PID.TID 0000.0001)           User time:  0.
(PID.TID 0000.0001)         System time:  0.
(PID.TID 0000.0001)     Wall clock time:  0.00227308273
(PID.TID 0000.0001)          No. starts: 10
(PID.TID 0000.0001)           No. stops: 10
(PID.TID 0000.0001)   Seconds in section "BLOCKING_EXCHANGES  [FORWARD_STEP]":
(PID.TID 0000.0001)           User time:  0.00999999046
(PID.TID 0000.0001)         System time:  0.
(PID.TID 0000.0001)     Wall clock time:  0.00299453735
(PID.TID 0000.0001)          No. starts: 10
(PID.TID 0000.0001)           No. stops: 10
(PID.TID 0000.0001)   Seconds in section "DO_STATEVARS_DIAGS  [FORWARD_STEP]":
(PID.TID 0000.0001)           User time:  0.
(PID.TID 0000.0001)         System time:  0.
(PID.TID 0000.0001)     Wall clock time:  0.000679731369
(PID.TID 0000.0001)          No. starts: 10
(PID.TID 0000.0001)           No. stops: 10
(PID.TID 0000.0001)   Seconds in section "MONITOR             [FORWARD_STEP]":
(PID.TID 0000.0001)           User time:  0.0899999142
(PID.TID 0000.0001)         System time:  0.
(PID.TID 0000.0001)     Wall clock time:  0.0904793739
(PID.TID 0000.0001)          No. starts: 10
(PID.TID 0000.0001)           No. stops: 10
(PID.TID 0000.0001)   Seconds in section "DO_THE_MODEL_IO     [FORWARD_STEP]":
(PID.TID 0000.0001)           User time:  0.0799999237
(PID.TID 0000.0001)         System time:  0.
(PID.TID 0000.0001)     Wall clock time:  0.0854349136
(PID.TID 0000.0001)          No. starts: 10
(PID.TID 0000.0001)           No. stops: 10
(PID.TID 0000.0001)   Seconds in section "WRITE_CHECKPOINT    [FORWARD_STEP]":
(PID.TID 0000.0001)           User time:  0.
(PID.TID 0000.0001)         System time:  0.
(PID.TID 0000.0001)     Wall clock time:  0.000298023224
(PID.TID 0000.0001)          No. starts: 10
(PID.TID 0000.0001)           No. stops: 10
(PID.TID 0000.0001)   Seconds in section "WRITE_CHECKPOINT       [THE_MODEL_MAIN]":
(PID.TID 0000.0001)           User time:  0.100000143
(PID.TID 0000.0001)         System time:  0.
(PID.TID 0000.0001)     Wall clock time:  0.0972959995
(PID.TID 0000.0001)          No. starts: 1
(PID.TID 0000.0001)           No. stops: 1
(PID.TID 0000.0001) // ======================================================
(PID.TID 0000.0001) // Tile <-> Tile communication statistics
(PID.TID 0000.0001) // ======================================================
(PID.TID 0000.0001) // o Tile number: 000001
(PID.TID 0000.0001) //         No. X exchanges =              0
(PID.TID 0000.0001) //            Max. X spins =              0
(PID.TID 0000.0001) //            Min. X spins =     1000000000
(PID.TID 0000.0001) //          Total. X spins =              0
(PID.TID 0000.0001) //            Avg. X spins =       0.00E+00
(PID.TID 0000.0001) //         No. Y exchanges =              0
(PID.TID 0000.0001) //            Max. Y spins =              0
(PID.TID 0000.0001) //            Min. Y spins =     1000000000
(PID.TID 0000.0001) //          Total. Y spins =              0
(PID.TID 0000.0001) //            Avg. Y spins =       0.00E+00
(PID.TID 0000.0001) // o Tile number: 000002
(PID.TID 0000.0001) //         No. X exchanges =              0
(PID.TID 0000.0001) //            Max. X spins =              0
(PID.TID 0000.0001) //            Min. X spins =     1000000000
(PID.TID 0000.0001) //          Total. X spins =              0
(PID.TID 0000.0001) //            Avg. X spins =       0.00E+00
(PID.TID 0000.0001) //         No. Y exchanges =              0
(PID.TID 0000.0001) //            Max. Y spins =              0
(PID.TID 0000.0001) //            Min. Y spins =     1000000000
(PID.TID 0000.0001) //          Total. Y spins =              0
(PID.TID 0000.0001) //            Avg. Y spins =       0.00E+00
(PID.TID 0000.0001) // o Tile number: 000003
(PID.TID 0000.0001) //         No. X exchanges =              0
(PID.TID 0000.0001) //            Max. X spins =              0
(PID.TID 0000.0001) //            Min. X spins =     1000000000
(PID.TID 0000.0001) //          Total. X spins =              0
(PID.TID 0000.0001) //            Avg. X spins =       0.00E+00
(PID.TID 0000.0001) //         No. Y exchanges =              0
(PID.TID 0000.0001) //            Max. Y spins =              0
(PID.TID 0000.0001) //            Min. Y spins =     1000000000
(PID.TID 0000.0001) //          Total. Y spins =              0
(PID.TID 0000.0001) //            Avg. Y spins =       0.00E+00
(PID.TID 0000.0001) // o Tile number: 000004
(PID.TID 0000.0001) //         No. X exchanges =              0
(PID.TID 0000.0001) //            Max. X spins =              0
(PID.TID 0000.0001) //            Min. X spins =     1000000000
(PID.TID 0000.0001) //          Total. X spins =              0
(PID.TID 0000.0001) //            Avg. X spins =       0.00E+00
(PID.TID 0000.0001) //         No. Y exchanges =              0
(PID.TID 0000.0001) //            Max. Y spins =              0
(PID.TID 0000.0001) //            Min. Y spins =     1000000000
(PID.TID 0000.0001) //          Total. Y spins =              0
(PID.TID 0000.0001) //            Avg. Y spins =       0.00E+00
(PID.TID 0000.0001) // o Thread number: 000001
(PID.TID 0000.0001) //            No. barriers =          15258
(PID.TID 0000.0001) //      Max. barrier spins =              1
(PID.TID 0000.0001) //      Min. barrier spins =              1
(PID.TID 0000.0001) //     Total barrier spins =          15258
(PID.TID 0000.0001) //      Avg. barrier spins =       1.00E+00
