(PID.TID 0000.0001) 
(PID.TID 0000.0001) // ======================================================
(PID.TID 0000.0001) //                      MITgcm UV
(PID.TID 0000.0001) //                      =========
(PID.TID 0000.0001) // ======================================================
(PID.TID 0000.0001) // execution environment starting up...
(PID.TID 0000.0001) 
(PID.TID 0000.0001) // MITgcmUV version:  checkpoint64c
(PID.TID 0000.0001) // Build user:        jmc
(PID.TID 0000.0001) // Build host:        baudelaire
(PID.TID 0000.0001) // Build date:        Sat Feb  2 22:34:53 EST 2013
(PID.TID 0000.0001) 
(PID.TID 0000.0001) // =======================================================
(PID.TID 0000.0001) // Execution Environment parameter file "eedata"
(PID.TID 0000.0001) // =======================================================
(PID.TID 0000.0001) ># Example "eedata" file
(PID.TID 0000.0001) ># Lines beginning "#" are comments
(PID.TID 0000.0001) ># nTx - No. threads per process in X
(PID.TID 0000.0001) ># nTy - No. threads per process in Y
(PID.TID 0000.0001) > &EEPARMS
(PID.TID 0000.0001) > useCubedSphereExchange=.TRUE.,
(PID.TID 0000.0001) ># Activate one line below to support 2, 3 or 6 way multi-threading
(PID.TID 0000.0001) > nTx=1,
(PID.TID 0000.0001) >#nTx=2,
(PID.TID 0000.0001) >#nTx=3,
(PID.TID 0000.0001) >#nTx=6,
(PID.TID 0000.0001) > /
(PID.TID 0000.0001) ># Note: Some systems use & as the
(PID.TID 0000.0001) ># namelist terminator. Other systems
(PID.TID 0000.0001) ># use a / character (as shown here).
(PID.TID 0000.0001) 
(PID.TID 0000.0001) // =======================================================
(PID.TID 0000.0001) // Computational Grid Specification ( see files "SIZE.h" )
(PID.TID 0000.0001) //                                  ( and "eedata"       )
(PID.TID 0000.0001) // =======================================================
(PID.TID 0000.0001)      nPx =    1 ; /* No. processes in X */
(PID.TID 0000.0001)      nPy =    1 ; /* No. processes in Y */
(PID.TID 0000.0001)      nSx =    6 ; /* No. tiles in X per process */
(PID.TID 0000.0001)      nSy =    1 ; /* No. tiles in Y per process */
(PID.TID 0000.0001)      sNx =   32 ; /* Tile size in X */
(PID.TID 0000.0001)      sNy =   32 ; /* Tile size in Y */
(PID.TID 0000.0001)      OLx =    2 ; /* Tile overlap distance in X */
(PID.TID 0000.0001)      OLy =    2 ; /* Tile overlap distance in Y */
(PID.TID 0000.0001)      nTx =    1 ; /* No. threads in X per process */
(PID.TID 0000.0001)      nTy =    1 ; /* No. threads in Y per process */
(PID.TID 0000.0001)       Nr =    5 ; /* No. levels in the vertical   */
(PID.TID 0000.0001)       Nx =  192 ; /* Total domain size in X ( = nPx*nSx*sNx ) */
(PID.TID 0000.0001)       Ny =   32 ; /* Total domain size in Y ( = nPy*nSy*sNy ) */
(PID.TID 0000.0001)   nTiles =    6 ; /* Total no. tiles per process ( = nSx*nSy ) */
(PID.TID 0000.0001)   nProcs =    1 ; /* Total no. processes ( = nPx*nPy ) */
(PID.TID 0000.0001) nThreads =    1 ; /* Total no. threads per process ( = nTx*nTy ) */
(PID.TID 0000.0001) usingMPI =    F ; /* Flag used to control whether MPI is in use */
(PID.TID 0000.0001)                   /*  note: To execute a program with MPI calls */
(PID.TID 0000.0001)                   /*  it must be launched appropriately e.g     */
(PID.TID 0000.0001)                   /*  "mpirun -np 64 ......"                    */
(PID.TID 0000.0001) useCoupler=    F ;/* Flag used to control communications with   */
(PID.TID 0000.0001)                   /*  other model components, through a coupler */
(PID.TID 0000.0001) debugMode =    F ; /* print debug msg. (sequence of S/R calls)  */
(PID.TID 0000.0001) printMapIncludesZeros=    F ; /* print zeros in Std.Output maps */
(PID.TID 0000.0001) maxLengthPrt1D=   65 /* maxLength of 1D array printed to StdOut */
(PID.TID 0000.0001) 
(PID.TID 0000.0001) // ======================================================
(PID.TID 0000.0001) // Mapping of tiles to threads
(PID.TID 0000.0001) // ======================================================
(PID.TID 0000.0001) // -o- Thread   1, tiles (   1:   6,   1:   1)
(PID.TID 0000.0001) 
(PID.TID 0000.0001) W2_READPARMS: file data.exch2 not found
(PID.TID 0000.0001) => use W2_EXCH2 default: regular 6-facets Cube
(PID.TID 0000.0001) W2_useE2ioLayOut=    T ;/* T: use Exch2 glob IO map; F: use model default */
(PID.TID 0000.0001) W2_mapIO        =  -1 ; /* select option for Exch2 global-IO map */
(PID.TID 0000.0001) W2_printMsg     =  -1 ; /* select option for printing information */
(PID.TID 0000.0001) ===== Start setting W2 TOPOLOGY:
(PID.TID 0000.0001)  write to log-file: w2_tile_topology.0000.log
(PID.TID 0000.0001) =====       setting W2 TOPOLOGY: Done
(PID.TID 0000.0001) 
(PID.TID 0000.0001)  INI_PARMS: opening model parameter file "data"
(PID.TID 0000.0001)  OPEN_COPY_DATA_FILE: opening file data
(PID.TID 0000.0001) // =======================================================
(PID.TID 0000.0001) // Parameter file "data"
(PID.TID 0000.0001) // =======================================================
(PID.TID 0000.0001) ># ====================
(PID.TID 0000.0001) ># | Model parameters |
(PID.TID 0000.0001) ># ====================
(PID.TID 0000.0001) >#
(PID.TID 0000.0001) ># Continuous equation parameters
(PID.TID 0000.0001) > &PARM01
(PID.TID 0000.0001) > tRef=289.6, 298.1, 314.5, 335.8, 437.4,
(PID.TID 0000.0001) > sRef=5*0.,
(PID.TID 0000.0001) > no_slip_sides=.FALSE.,
(PID.TID 0000.0001) > no_slip_bottom=.FALSE.,
(PID.TID 0000.0001) > buoyancyRelation='ATMOSPHERIC',
(PID.TID 0000.0001) > eosType='IDEALG',
(PID.TID 0000.0001) > atm_Rq=0.6078E-3,
(PID.TID 0000.0001) > Integr_GeoPot=2,
(PID.TID 0000.0001) > selectFindRoSurf=1,
(PID.TID 0000.0001) > gravity=9.81,
(PID.TID 0000.0001) > rhoConstFresh=1000.,
(PID.TID 0000.0001) > implicitFreeSurface=.TRUE.,
(PID.TID 0000.0001) > exactConserv=.TRUE.,
(PID.TID 0000.0001) > select_rStar=2,
(PID.TID 0000.0001) > nonlinFreeSurf=4,
(PID.TID 0000.0001) > hFacInf=0.2,
(PID.TID 0000.0001) > hFacSup=2.0,
(PID.TID 0000.0001) > uniformLin_PhiSurf=.FALSE.,
(PID.TID 0000.0001) > hFacMin=0.2,
(PID.TID 0000.0001) > saltAdvScheme=3,
(PID.TID 0000.0001) > vectorInvariantMomentum=.TRUE.,
(PID.TID 0000.0001) > useJamartWetPoints=.TRUE.,
(PID.TID 0000.0001) > staggerTimeStep=.TRUE.,
(PID.TID 0000.0001) > readBinaryPrec=64,
(PID.TID 0000.0001) >#writeBinaryPrec=64,
(PID.TID 0000.0001) > useSingleCpuIO=.TRUE.
(PID.TID 0000.0001) > /
(PID.TID 0000.0001) >
(PID.TID 0000.0001) ># Elliptic solver parameters
(PID.TID 0000.0001) > &PARM02
(PID.TID 0000.0001) > cg2dMaxIters=200,
(PID.TID 0000.0001) >#cg2dTargetResidual=1.E-12,
(PID.TID 0000.0001) > cg2dTargetResWunit=1.E-17,
(PID.TID 0000.0001) > /
(PID.TID 0000.0001) >
(PID.TID 0000.0001) ># Time stepping parameters
(PID.TID 0000.0001) > &PARM03
(PID.TID 0000.0001) > nIter0=0,
(PID.TID 0000.0001) > nTimeSteps=10,
(PID.TID 0000.0001) ># 10yr:
(PID.TID 0000.0001) >#endTime=311040000.,
(PID.TID 0000.0001) > deltaT=450.0,
(PID.TID 0000.0001) > abEps=0.1,
(PID.TID 0000.0001) > forcing_In_AB=.FALSE.,
(PID.TID 0000.0001) > cAdjFreq=0.,
(PID.TID 0000.0001) > pChkptFreq=2592000.,
(PID.TID 0000.0001) > taveFreq=2592000.,
(PID.TID 0000.0001) > dumpFreq=2592000.,
(PID.TID 0000.0001) > monitorFreq=86400.,
(PID.TID 0000.0001) > monitorFreq=1.,
(PID.TID 0000.0001) > /
(PID.TID 0000.0001) >
(PID.TID 0000.0001) ># Gridding parameters
(PID.TID 0000.0001) > &PARM04
(PID.TID 0000.0001) > usingCurvilinearGrid=.TRUE.,
(PID.TID 0000.0001) > radius_fromHorizGrid=6370.E3,
(PID.TID 0000.0001) > delR=100.E2, 250.E2, 300.E2, 200.E2, 150.E2,
(PID.TID 0000.0001) > Ro_SeaLevel=1.E5,
(PID.TID 0000.0001) > /
(PID.TID 0000.0001) >
(PID.TID 0000.0001) ># Input datasets
(PID.TID 0000.0001) > &PARM05
(PID.TID 0000.0001) > topoFile='topo.cpl_FM.bin',
(PID.TID 0000.0001) > /
(PID.TID 0000.0001) 
(PID.TID 0000.0001)  INI_PARMS ; starts to read PARM01
(PID.TID 0000.0001)  INI_PARMS ; read PARM01 : OK
(PID.TID 0000.0001)  INI_PARMS ; starts to read PARM02
(PID.TID 0000.0001)  INI_PARMS ; read PARM02 : OK
(PID.TID 0000.0001)  INI_PARMS ; starts to read PARM03
(PID.TID 0000.0001)  INI_PARMS ; read PARM03 : OK
(PID.TID 0000.0001)  INI_PARMS ; starts to read PARM04
(PID.TID 0000.0001)  INI_PARMS ; read PARM04 : OK
(PID.TID 0000.0001)  INI_PARMS ; starts to read PARM05
(PID.TID 0000.0001)  INI_PARMS ; read PARM05 : OK
(PID.TID 0000.0001)  INI_PARMS: finished reading file "data"
(PID.TID 0000.0001)  PACKAGES_BOOT: opening data.pkg
(PID.TID 0000.0001)  OPEN_COPY_DATA_FILE: opening file data.pkg
(PID.TID 0000.0001) // =======================================================
(PID.TID 0000.0001) // Parameter file "data.pkg"
(PID.TID 0000.0001) // =======================================================
(PID.TID 0000.0001) ># Packages
(PID.TID 0000.0001) >#     useAIM  :: use Atmospheric Intermediate complexity Model
(PID.TID 0000.0001) >#     useLand :: use (simple) Land package to compute surf. BC over land
(PID.TID 0000.0001) >#   useThSIce :: use Therm. SeaIce package (+slab ocean)
(PID.TID 0000.0001) > &PACKAGES
(PID.TID 0000.0001) > useAIM=.TRUE.,
(PID.TID 0000.0001) > useLand=.TRUE.,
(PID.TID 0000.0001) > useThSIce=.TRUE.,
(PID.TID 0000.0001) > useSHAP_FILT=.TRUE.,
(PID.TID 0000.0001) > useDiagnostics=.TRUE.,
(PID.TID 0000.0001) ># useMNC=.TRUE.,
(PID.TID 0000.0001) > /
(PID.TID 0000.0001) 
(PID.TID 0000.0001)  PACKAGES_BOOT: finished reading data.pkg
(PID.TID 0000.0001)  SHAP_FILT_READPARMS: opening data.shap
(PID.TID 0000.0001)  OPEN_COPY_DATA_FILE: opening file data.shap
(PID.TID 0000.0001) // =======================================================
(PID.TID 0000.0001) // Parameter file "data.shap"
(PID.TID 0000.0001) // =======================================================
(PID.TID 0000.0001) ># Shapiro Filter parameters
(PID.TID 0000.0001) > &SHAP_PARM01
(PID.TID 0000.0001) > shap_filt_uvStar=.FALSE.,
(PID.TID 0000.0001) > shap_filt_TrStagg=.TRUE.,
(PID.TID 0000.0001) > Shap_funct=2,
(PID.TID 0000.0001) > nShapT=4,
(PID.TID 0000.0001) > nShapUV=4,
(PID.TID 0000.0001) > nShapTrPhys=1,
(PID.TID 0000.0001) > nShapUVPhys=0,
(PID.TID 0000.0001) > Shap_TrLength=140000.,
(PID.TID 0000.0001) >#Shap_uvLength=140000.,
(PID.TID 0000.0001) > Shap_Trtau=5400.,
(PID.TID 0000.0001) > Shap_uvtau=1800.,
(PID.TID 0000.0001) >#Shap_diagFreq=2592000.,
(PID.TID 0000.0001) > /
(PID.TID 0000.0001) 
(PID.TID 0000.0001)  SHAP_FILT_READPARMS: finished reading data.shap
(PID.TID 0000.0001) Shap_funct =   /* select Shapiro filter function */
(PID.TID 0000.0001)                       2
(PID.TID 0000.0001)     ;
(PID.TID 0000.0001) nShapT =   /* power of Shapiro filter for Temperat */
(PID.TID 0000.0001)                       4
(PID.TID 0000.0001)     ;
(PID.TID 0000.0001) nShapS =   /* power of Shapiro filter for Salinity */
(PID.TID 0000.0001)                       4
(PID.TID 0000.0001)     ;
(PID.TID 0000.0001) nShapUV =   /* power of Shapiro filter for momentum */
(PID.TID 0000.0001)                       4
(PID.TID 0000.0001)     ;
(PID.TID 0000.0001) shap_filt_uvStar = /* apply filter before Press. Solver */
(PID.TID 0000.0001)                   F
(PID.TID 0000.0001)     ;
(PID.TID 0000.0001) shap_filt_TrStagg = /* filter T,S before calc PhiHyd (staggerTimeStep) */
(PID.TID 0000.0001)                   T
(PID.TID 0000.0001)     ;
(PID.TID 0000.0001) Shap_alwaysExchUV = /* always exch(U,V)    nShapUV times*/
(PID.TID 0000.0001)                   F
(PID.TID 0000.0001)     ;
(PID.TID 0000.0001) Shap_alwaysExchTr = /* always exch(Tracer) nShapTr times*/
(PID.TID 0000.0001)                   F
(PID.TID 0000.0001)     ;
(PID.TID 0000.0001) nShapTrPhys =   /* power of physical-space filter (Tracer) */
(PID.TID 0000.0001)                       1
(PID.TID 0000.0001)     ;
(PID.TID 0000.0001) nShapUVPhys =   /* power of physical-space filter (Momentum) */
(PID.TID 0000.0001)                       0
(PID.TID 0000.0001)     ;
(PID.TID 0000.0001) Shap_Trtau =   /* time scale of Shapiro filter (Tracer) */
(PID.TID 0000.0001)                 5.400000000000000E+03
(PID.TID 0000.0001)     ;
(PID.TID 0000.0001) Shap_TrLength =   /* Length scale of Shapiro filter (Tracer) */
(PID.TID 0000.0001)                 1.400000000000000E+05
(PID.TID 0000.0001)     ;
(PID.TID 0000.0001) Shap_uvtau =   /* time scale of Shapiro filter (Momentum) */
(PID.TID 0000.0001)                 1.800000000000000E+03
(PID.TID 0000.0001)     ;
(PID.TID 0000.0001) Shap_uvLength =   /* Length scale of Shapiro filter (Momentum) */
(PID.TID 0000.0001)                 0.000000000000000E+00
(PID.TID 0000.0001)     ;
(PID.TID 0000.0001) Shap_noSlip =  /* No-slip parameter (0=Free-slip ; 1=No-slip)*/
(PID.TID 0000.0001)                 0.000000000000000E+00
(PID.TID 0000.0001)     ;
(PID.TID 0000.0001) Shap_diagFreq =   /* Frequency^-1 for diagnostic output (s)*/
(PID.TID 0000.0001)                 0.000000000000000E+00
(PID.TID 0000.0001)     ;
(PID.TID 0000.0001)  THSICE_READPARMS: opening data.ice
(PID.TID 0000.0001)  OPEN_COPY_DATA_FILE: opening file data.ice
(PID.TID 0000.0001) // =======================================================
(PID.TID 0000.0001) // Parameter file "data.ice"
(PID.TID 0000.0001) // =======================================================
(PID.TID 0000.0001) > &THSICE_CONST
(PID.TID 0000.0001) > Tf0kel  = 273.15,
(PID.TID 0000.0001) > rhosw   = 1030.,
(PID.TID 0000.0001) >#- with LANL albedo:
(PID.TID 0000.0001) >#albWarmSnow= 0.75,
(PID.TID 0000.0001) > iceMaskMin = 0.01,
(PID.TID 0000.0001) > hThinIce   = 0.1,
(PID.TID 0000.0001) > hiMax      = 10.,
(PID.TID 0000.0001) > hsMax      = 10.,
(PID.TID 0000.0001) >#albIceMax  = 0.7,
(PID.TID 0000.0001) >#albIceMin  = 0.7,
(PID.TID 0000.0001) > /
(PID.TID 0000.0001) >
(PID.TID 0000.0001) > &THSICE_PARM01
(PID.TID 0000.0001) >#startIceModel=1,
(PID.TID 0000.0001) > stepFwd_oceMxL=.TRUE.,
(PID.TID 0000.0001) >#ocean_deltaT=3600.,
(PID.TID 0000.0001) > tauRelax_MxL=5184000.,
(PID.TID 0000.0001) >#thSIceAdvScheme=1,
(PID.TID 0000.0001) >#thSIce_diffK   =800.,
(PID.TID 0000.0001) > stressReduction=0.,
(PID.TID 0000.0001) >#thSIce_taveFreq=2592000.,
(PID.TID 0000.0001) > thSIce_diagFreq=5184000.,
(PID.TID 0000.0001) >#thSIce_monFreq=864000.,
(PID.TID 0000.0001) >#thSIce_diagFreq=0.,
(PID.TID 0000.0001) > /
(PID.TID 0000.0001) >
(PID.TID 0000.0001) 
(PID.TID 0000.0001)  THSICE_READPARMS: read THSICE_CONST
(PID.TID 0000.0001)  THSICE_READPARMS: read THSICE_PARM01
 ThSI:       rhos        =  3.3000000000000E+02
 ThSI:       rhoi        =  9.0000000000000E+02
 ThSI:       rhosw       =  1.0300000000000E+03
 ThSI:       rhofw       =  1.0000000000000E+03
 ThSI:       floodFac    =  3.9393939393939E-01
 ThSI:       cpIce       =  2.1060000000000E+03
 ThSI:       cpWater     =  3.9940000000000E+03
 ThSI:       kIce        =  2.0300000000000E+00
 ThSI:       kSnow       =  3.0000000000000E-01
 ThSI:       bMeltCoef   =  6.0000000000000E-03
 ThSI:       Lfresh      =  3.3400000000000E+05
 ThSI:       qsnow       =  3.3400000000000E+05
 ThSI:       albColdSnow =  8.5000000000000E-01
 ThSI:       albWarmSnow =  7.0000000000000E-01
 ThSI:       tempSnowAlb = -1.0000000000000E+01
 ThSI:       albOldSnow  =  5.5000000000000E-01
 ThSI:       hNewSnowAge =  2.0000000000000E-03
 ThSI:       snowAgTime  =  4.3200000000000E+06
 ThSI:       albIceMax   =  6.5000000000000E-01
 ThSI:       albIceMin   =  2.0000000000000E-01
 ThSI:       hAlbIce     =  5.0000000000000E-01
 ThSI:       hAlbSnow    =  3.0000000000000E-01
 ThSI:       i0swFrac    =  3.0000000000000E-01
 ThSI:       ksolar      =  1.5000000000000E+00
 ThSI:       dhSnowLin   =  0.0000000000000E+00
 ThSI:       saltIce     =  4.0000000000000E+00
 ThSI:       S_winton    =  1.0000000000000E+00
 ThSI:       mu_Tf       =  5.4000000000000E-02
 ThSI:       Tf0kel      =  2.7315000000000E+02
 ThSI:       Tmlt1       = -5.4000000000000E-02
 ThSI:       Terrmax     =  5.0000000000000E-01
 ThSI:       nitMaxTsf   =        20
 ThSI:       hIceMin     =  1.0000000000000E-02
 ThSI:       hiMax       =  1.0000000000000E+01
 ThSI:       hsMax       =  1.0000000000000E+01
 ThSI:       iceMaskMax  =  1.0000000000000E+00
 ThSI:       iceMaskMin  =  1.0000000000000E-02
 ThSI:       fracEnMelt  =  4.0000000000000E-01
 ThSI:       fracEnFreez =  0.0000000000000E+00
 ThSI:       hThinIce    =  1.0000000000000E-01
 ThSI:       hThickIce   =  2.5000000000000E+00
 ThSI:       hNewIceMax  =  1.0000000000000E+01
 ThSI: stressReduction   =  0.0000000000000E+00
 ThSI: thSIce_skipThermo =         F
 ThSI: thSIceAdvScheme   =         0
 ThSI: thSIceBalanceAtmFW=         0
 ThSI: thSIce_diffK      =  0.0000000000000E+00
 ThSI: thSIce_deltaT     =  4.5000000000000E+02
 ThSI: ocean_deltaT      =  4.5000000000000E+02
 ThSI: stepFwd_oceMxL    =         T
 ThSI: tauRelax_MxL      =  5.1840000000000E+06
 ThSI: tauRelax_MxL_salt =  5.1840000000000E+06
 ThSI: hMxL_default      =  5.0000000000000E+01
 ThSI: sMxL_default      =  3.5000000000000E+01
 ThSI: vMxL_default      =  5.0000000000000E-02
 ThSI: thSIce_taveFreq   =  2.5920000000000E+06
 ThSI: thSIce_diagFreq   =  5.1840000000000E+06
 ThSI: thSIce_monFreq    =  1.0000000000000E+00
 ThSI: startIceModel     =         0
(PID.TID 0000.0001)  DIAGNOSTICS_READPARMS: opening data.diagnostics
(PID.TID 0000.0001)  OPEN_COPY_DATA_FILE: opening file data.diagnostics
(PID.TID 0000.0001) // =======================================================
(PID.TID 0000.0001) // Parameter file "data.diagnostics"
(PID.TID 0000.0001) // =======================================================
(PID.TID 0000.0001) ># Diagnostic Package Choices
(PID.TID 0000.0001) >#--------------------
(PID.TID 0000.0001) >#  dumpAtLast (logical): always write output at the end of simulation (default=F)
(PID.TID 0000.0001) >#  diag_mnc   (logical): write to NetCDF files (default=useMNC)
(PID.TID 0000.0001) >#--for each output-stream:
(PID.TID 0000.0001) >#  fileName(n) : prefix of the output file name (max 80c long) for outp.stream n
(PID.TID 0000.0001) >#  frequency(n):< 0 : write snap-shot output every |frequency| seconds
(PID.TID 0000.0001) >#               > 0 : write time-average output every frequency seconds
(PID.TID 0000.0001) >#  timePhase(n)     : write at time = timePhase + multiple of |frequency|
(PID.TID 0000.0001) >#    averagingFreq  : frequency (in s) for periodic averaging interval
(PID.TID 0000.0001) >#    averagingPhase : phase     (in s) for periodic averaging interval
(PID.TID 0000.0001) >#    repeatCycle    : number of averaging intervals in 1 cycle
(PID.TID 0000.0001) >#  levels(:,n) : list of levels to write to file (Notes: declared as REAL)
(PID.TID 0000.0001) >#                when this entry is missing, select all common levels of this list
(PID.TID 0000.0001) >#  fields(:,n) : list of selected diagnostics fields (8.c) in outp.stream n
(PID.TID 0000.0001) >#                (see "available_diagnostics.log" file for the full list of diags)
(PID.TID 0000.0001) >#  missing_value(n) : missing value for real-type fields in output file "n"
(PID.TID 0000.0001) >#  fileFlags(n)     : specific code (8c string) for output file "n"
(PID.TID 0000.0001) >#--------------------
(PID.TID 0000.0001) > &DIAGNOSTICS_LIST
(PID.TID 0000.0001) >  fields(1:3,1)  = 'ETAN    ','ETANSQ  ','DETADT2 ',
(PID.TID 0000.0001) >   levels(1,1) = 1.,
(PID.TID 0000.0001) >   fileName(1) = 'surfDiag',
(PID.TID 0000.0001) >  frequency(1) = 4500.,
(PID.TID 0000.0001) >  fields(1:20,2) = 'UVEL    ','VVEL    ','WVEL    ','THETA   ','SALT    ',
(PID.TID 0000.0001) >                   'UVELSQ  ','VVELSQ  ','WVELSQ  ','THETASQ ',
(PID.TID 0000.0001) >                   'UV_VEL_Z','PHIHYD  ','PHIHYDSQ',
(PID.TID 0000.0001) >                   'UVELMASS','VVELMASS',
(PID.TID 0000.0001) >                   'UTHMASS ','VTHMASS ','WVELTH  ',
(PID.TID 0000.0001) >                   'USLTMASS','VSLTMASS','WVELSLT ',
(PID.TID 0000.0001) >   levels(1:5,2) = 1.,2.,3.,4.,5.,
(PID.TID 0000.0001) >   fileName(2) = 'dynDiag',
(PID.TID 0000.0001) >  frequency(2) = 4500.,
(PID.TID 0000.0001) >  fields(1:20,3) = 'UFLUX   ','VFLUX   ',
(PID.TID 0000.0001) >                   'TSR     ','OLR     ','RADSWG  ','RADLWG  ',
(PID.TID 0000.0001) >                   'HFLUX   ','EVAP    ','PRECON  ','PRECLS  ',
(PID.TID 0000.0001) >                   'CLDFRC  ','CLDPRS  ','CLDMAS  ',
(PID.TID 0000.0001) >                   'DRAG    ','WINDS   ','TS      ','QS      ',
(PID.TID 0000.0001) >                   'ENPREC  ','ALBVISDF','DTSIMPL ',
(PID.TID 0000.0001) >#                  'DWNLWG  ',
(PID.TID 0000.0001) >#                  'TSRCLR  ','OLRCLR  ','SWGCLR  ','LWGCLR  ',
(PID.TID 0000.0001) >   fileName(3) = 'aimDiag',
(PID.TID 0000.0001) >  frequency(3) = 4500.,
(PID.TID 0000.0001) >  fields(1:9,4) =  'RELHUM  ','DIABT   ','DIABQ   ',
(PID.TID 0000.0001) >                   'RADSW   ','RADLW   ','DTCONV  ','DTLS    ',
(PID.TID 0000.0001) >                   'DQCONV  ','DQLS    ',
(PID.TID 0000.0001) >#                  'SWCLR   ', 'LWCLR   ',
(PID.TID 0000.0001) >   fileName(4) = 'aimDDT',
(PID.TID 0000.0001) >  frequency(4) = 4500.,
(PID.TID 0000.0001) >  fields(1:14,5) = 'SI_Fract','SI_Thick','SI_SnowH',
(PID.TID 0000.0001) >                   'SI_Tsrf ','SI_Tice1','SI_Tice2',
(PID.TID 0000.0001) >                   'SI_Qice1','SI_Qice2','SIsnwAge',
(PID.TID 0000.0001) >                   'SIsnwPrc','SIalbedo',
(PID.TID 0000.0001) >                   'SIflx2oc','SIfrw2oc','SIsaltFx',
(PID.TID 0000.0001) >#                  'SIflxAtm','SIfrwAtm',
(PID.TID 0000.0001) >#                  'SItOcMxL','SIsOcMxL',
(PID.TID 0000.0001) >   fileName(5) = 'thSIceDiag',
(PID.TID 0000.0001) >  frequency(5) = 4500.,
(PID.TID 0000.0001) > /
(PID.TID 0000.0001) >
(PID.TID 0000.0001) >#--------------------
(PID.TID 0000.0001) ># Parameter for Diagnostics of per level statistics:
(PID.TID 0000.0001) >#--------------------
(PID.TID 0000.0001) >#  diagSt_mnc (logical): write stat-diags to NetCDF files (default=diag_mnc)
(PID.TID 0000.0001) >#  diagSt_regMaskFile : file containing the region-mask to read-in
(PID.TID 0000.0001) >#  nSetRegMskFile   : number of region-mask sets within the region-mask file
(PID.TID 0000.0001) >#  set_regMask(i)   : region-mask set-index that identifies the region "i"
(PID.TID 0000.0001) >#  val_regMask(i)   : region "i" identifier value in the region mask
(PID.TID 0000.0001) >#--for each output-stream:
(PID.TID 0000.0001) >#  stat_fName(n) : prefix of the output file name (max 80c long) for outp.stream n
(PID.TID 0000.0001) >#  stat_freq(n):< 0 : write snap-shot output every |stat_freq| seconds
(PID.TID 0000.0001) >#               > 0 : write time-average output every stat_freq seconds
(PID.TID 0000.0001) >#  stat_phase(n)    : write at time = stat_phase + multiple of |stat_freq|
(PID.TID 0000.0001) >#  stat_region(:,n) : list of "regions" (default: 1 region only=global)
(PID.TID 0000.0001) >#  stat_fields(:,n) : list of selected diagnostics fields (8.c) in outp.stream n
(PID.TID 0000.0001) >#                (see "available_diagnostics.log" file for the full list of diags)
(PID.TID 0000.0001) >#--------------------
(PID.TID 0000.0001) > &DIAG_STATIS_PARMS
(PID.TID 0000.0001) >#- regional mask: 3 lat. band: 1 : y <= -24 ; 2 : -24<y<24 ; 3 : 24 <= y
(PID.TID 0000.0001) > diagSt_regMaskFile='regMask_lat24.bin',
(PID.TID 0000.0001) > nSetRegMskFile = 1,
(PID.TID 0000.0001) > set_regMask(1:3) = 1,  1,  1,
(PID.TID 0000.0001) > val_regMask(1:3) = 1., 2., 3.,
(PID.TID 0000.0001) >#- an example just to check the agreement with MONITOR output:
(PID.TID 0000.0001) > stat_fields(1:5,1)  = 'ETAN    ','UVEL    ','VVEL    ','WVEL    ', 'THETA   ',
(PID.TID 0000.0001) >  stat_fName(1) = 'dynStDiag',
(PID.TID 0000.0001) >   stat_freq(1) = -3600.,
(PID.TID 0000.0001) >  stat_phase(1) = 0.,
(PID.TID 0000.0001) > stat_fields(1:4,4)  = 'LdSnowH ', 'GrdSurfT', 'GrdTemp ', 'GrdWater',
(PID.TID 0000.0001) >  stat_region(1:3,4) = 1, 2, 3,
(PID.TID 0000.0001) >  stat_fName(4) = 'landStDiag',
(PID.TID 0000.0001) >   stat_freq(4) = -3600.,
(PID.TID 0000.0001) >  stat_phase(4) = 0.,
(PID.TID 0000.0001) > stat_fields(1:12,5) = 'SI_Fract', 'SI_Thick', 'SI_SnowH',
(PID.TID 0000.0001) >                   'SI_Tsrf ', 'SI_Tice1', 'SI_Tice2',
(PID.TID 0000.0001) >#                  'SI_Qice1', 'SI_Qice2',
(PID.TID 0000.0001) >                   'SIsnwPrc', 'SIalbedo', 'SIsnwAge',
(PID.TID 0000.0001) >                   'SIflx2oc', 'SIfrw2oc', 'SIsaltFx',
(PID.TID 0000.0001) >  stat_region(1:3,5) = 1, 3, 0,
(PID.TID 0000.0001) >  stat_fName(5) = 'thSIceStDiag',
(PID.TID 0000.0001) >   stat_freq(5) = -3600.,
(PID.TID 0000.0001) >  stat_phase(5) = 0.,
(PID.TID 0000.0001) > /
(PID.TID 0000.0001) >
(PID.TID 0000.0001) 
(PID.TID 0000.0001) S/R DIAGNOSTICS_READPARMS, read namelist "diagnostics_list": start
(PID.TID 0000.0001) S/R DIAGNOSTICS_READPARMS, read namelist "diagnostics_list": OK
(PID.TID 0000.0001) S/R DIAGNOSTICS_READPARMS, read namelist "DIAG_STATIS_PARMS": start
(PID.TID 0000.0001) S/R DIAGNOSTICS_READPARMS, read namelist "DIAG_STATIS_PARMS": OK
(PID.TID 0000.0001)  DIAGNOSTICS_READPARMS: global parameter summary:
(PID.TID 0000.0001)  dumpAtLast = /* always write time-ave diags at the end */
(PID.TID 0000.0001)                   F
(PID.TID 0000.0001)     ;
(PID.TID 0000.0001)  diag_mnc =   /* write NetCDF output files */
(PID.TID 0000.0001)                   F
(PID.TID 0000.0001)     ;
(PID.TID 0000.0001)  useMissingValue = /* put MissingValue where mask = 0 */
(PID.TID 0000.0001)                   F
(PID.TID 0000.0001)     ;
(PID.TID 0000.0001)  diagCG_maxIters = /* max number of iters in diag_cg2d */
(PID.TID 0000.0001)                     200
(PID.TID 0000.0001)     ;
(PID.TID 0000.0001)  diagCG_resTarget = /* residual target for diag_cg2d */
(PID.TID 0000.0001)                 1.000000000000000E-07
(PID.TID 0000.0001)     ;
(PID.TID 0000.0001) -----------------------------------------------------
(PID.TID 0000.0001)  DIAGNOSTICS_READPARMS: active diagnostics summary:
(PID.TID 0000.0001) -----------------------------------------------------
(PID.TID 0000.0001) Creating Output Stream: surfDiag
(PID.TID 0000.0001) Output Frequency:       4500.000000 ; Phase:           0.000000
(PID.TID 0000.0001)  Averaging Freq.:       4500.000000 , Phase:           0.000000 , Cycle:   1
(PID.TID 0000.0001)  missing value:  1.234567000000E+05 ; for integers:   123456789
(PID.TID 0000.0001)  Levels:       1.
(PID.TID 0000.0001)  Fields:    ETAN     ETANSQ   DETADT2
(PID.TID 0000.0001) Creating Output Stream: dynDiag
(PID.TID 0000.0001) Output Frequency:       4500.000000 ; Phase:           0.000000
(PID.TID 0000.0001)  Averaging Freq.:       4500.000000 , Phase:           0.000000 , Cycle:   1
(PID.TID 0000.0001)  missing value:  1.234567000000E+05 ; for integers:   123456789
(PID.TID 0000.0001)  Levels:       1.   2.   3.   4.   5.
(PID.TID 0000.0001)  Fields:    UVEL     VVEL     WVEL     THETA    SALT     UVELSQ   VVELSQ   WVELSQ   THETASQ  UV_VEL_Z
(PID.TID 0000.0001)  Fields:    PHIHYD   PHIHYDSQ UVELMASS VVELMASS UTHMASS  VTHMASS  WVELTH   USLTMASS VSLTMASS WVELSLT
(PID.TID 0000.0001) Creating Output Stream: aimDiag
(PID.TID 0000.0001) Output Frequency:       4500.000000 ; Phase:           0.000000
(PID.TID 0000.0001)  Averaging Freq.:       4500.000000 , Phase:           0.000000 , Cycle:   1
(PID.TID 0000.0001)  missing value:  1.234567000000E+05 ; for integers:   123456789
(PID.TID 0000.0001)  Levels:    will be set later
(PID.TID 0000.0001)  Fields:    UFLUX    VFLUX    TSR      OLR      RADSWG   RADLWG   HFLUX    EVAP     PRECON   PRECLS
(PID.TID 0000.0001)  Fields:    CLDFRC   CLDPRS   CLDMAS   DRAG     WINDS    TS       QS       ENPREC   ALBVISDF DTSIMPL
(PID.TID 0000.0001) Creating Output Stream: aimDDT
(PID.TID 0000.0001) Output Frequency:       4500.000000 ; Phase:           0.000000
(PID.TID 0000.0001)  Averaging Freq.:       4500.000000 , Phase:           0.000000 , Cycle:   1
(PID.TID 0000.0001)  missing value:  1.234567000000E+05 ; for integers:   123456789
(PID.TID 0000.0001)  Levels:    will be set later
(PID.TID 0000.0001)  Fields:    RELHUM   DIABT    DIABQ    RADSW    RADLW    DTCONV   DTLS     DQCONV   DQLS
(PID.TID 0000.0001) Creating Output Stream: thSIceDiag
(PID.TID 0000.0001) Output Frequency:       4500.000000 ; Phase:           0.000000
(PID.TID 0000.0001)  Averaging Freq.:       4500.000000 , Phase:           0.000000 , Cycle:   1
(PID.TID 0000.0001)  missing value:  1.234567000000E+05 ; for integers:   123456789
(PID.TID 0000.0001)  Levels:    will be set later
(PID.TID 0000.0001)  Fields:    SI_Fract SI_Thick SI_SnowH SI_Tsrf  SI_Tice1 SI_Tice2 SI_Qice1 SI_Qice2 SIsnwAge SIsnwPrc
(PID.TID 0000.0001)  Fields:    SIalbedo SIflx2oc SIfrw2oc SIsaltFx
(PID.TID 0000.0001) -----------------------------------------------------
(PID.TID 0000.0001)  DIAGNOSTICS_READPARMS: statistics diags. summary:
(PID.TID 0000.0001) Creating Stats. Output Stream: dynStDiag
(PID.TID 0000.0001) Output Frequency:      -3600.000000 ; Phase:           0.000000
(PID.TID 0000.0001)  Regions:   0
(PID.TID 0000.0001)  Fields:    ETAN     UVEL     VVEL     WVEL     THETA
(PID.TID 0000.0001) Creating Stats. Output Stream: landStDiag
(PID.TID 0000.0001) Output Frequency:      -3600.000000 ; Phase:           0.000000
(PID.TID 0000.0001)  Regions:   1  2  3
(PID.TID 0000.0001)  Fields:    LdSnowH  GrdSurfT GrdTemp  GrdWater
(PID.TID 0000.0001) Creating Stats. Output Stream: thSIceStDiag
(PID.TID 0000.0001) Output Frequency:      -3600.000000 ; Phase:           0.000000
(PID.TID 0000.0001)  Regions:   0  1  3
(PID.TID 0000.0001)  Fields:    SI_Fract SI_Thick SI_SnowH SI_Tsrf  SI_Tice1 SI_Tice2 SIsnwPrc SIalbedo SIsnwAge SIflx2oc
(PID.TID 0000.0001)  Fields:    SIfrw2oc SIsaltFx
(PID.TID 0000.0001) -----------------------------------------------------
(PID.TID 0000.0001) 
(PID.TID 0000.0001) SET_PARMS: done
(PID.TID 0000.0001) Enter INI_VERTICAL_GRID: setInterFDr=    T ; setCenterDr=    F
(PID.TID 0000.0001) tile:   1 ; Read from file tile001.mitgrid
(PID.TID 0000.0001)   => xC yC dxF dyF rA xG yG dxV dyU rAz dxC dyC rAw rAs dxG dyG
(PID.TID 0000.0001) tile:   2 ; Read from file tile002.mitgrid
(PID.TID 0000.0001)   => xC yC dxF dyF rA xG yG dxV dyU rAz dxC dyC rAw rAs dxG dyG
(PID.TID 0000.0001) tile:   3 ; Read from file tile003.mitgrid
(PID.TID 0000.0001)   => xC yC dxF dyF rA xG yG dxV dyU rAz dxC dyC rAw rAs dxG dyG
(PID.TID 0000.0001) tile:   4 ; Read from file tile004.mitgrid
(PID.TID 0000.0001)   => xC yC dxF dyF rA xG yG dxV dyU rAz dxC dyC rAw rAs dxG dyG
(PID.TID 0000.0001) tile:   5 ; Read from file tile005.mitgrid
(PID.TID 0000.0001)   => xC yC dxF dyF rA xG yG dxV dyU rAz dxC dyC rAw rAs dxG dyG
(PID.TID 0000.0001) tile:   6 ; Read from file tile006.mitgrid
(PID.TID 0000.0001)   => xC yC dxF dyF rA xG yG dxV dyU rAz dxC dyC rAw rAs dxG dyG
(PID.TID 0000.0001) %MON XC_max                       =   1.7854351589505E+02
(PID.TID 0000.0001) %MON XC_min                       =  -1.7854351589505E+02
(PID.TID 0000.0001) %MON XC_mean                      =  -4.6999441375798E-15
(PID.TID 0000.0001) %MON XC_sd                        =   1.0355545336287E+02
(PID.TID 0000.0001) %MON XG_max                       =   1.8000000000000E+02
(PID.TID 0000.0001) %MON XG_min                       =  -1.7708797161002E+02
(PID.TID 0000.0001) %MON XG_mean                      =   1.8603515625000E+00
(PID.TID 0000.0001) %MON XG_sd                        =   1.0357130300504E+02
(PID.TID 0000.0001) %MON DXC_max                      =   3.2375185836900E+05
(PID.TID 0000.0001) %MON DXC_min                      =   1.1142031410131E+05
(PID.TID 0000.0001) %MON DXC_mean                     =   2.8605689051214E+05
(PID.TID 0000.0001) %MON DXC_sd                       =   3.4042087138252E+04
(PID.TID 0000.0001) %MON DXF_max                      =   3.2369947500827E+05
(PID.TID 0000.0001) %MON DXF_min                      =   1.2020820513318E+05
(PID.TID 0000.0001) %MON DXF_mean                     =   2.8605437324820E+05
(PID.TID 0000.0001) %MON DXF_sd                       =   3.4050524252539E+04
(PID.TID 0000.0001) %MON DXG_max                      =   3.2375195872773E+05
(PID.TID 0000.0001) %MON DXG_min                      =   1.0098378008791E+05
(PID.TID 0000.0001) %MON DXG_mean                     =   2.8603818508931E+05
(PID.TID 0000.0001) %MON DXG_sd                       =   3.4140406908005E+04
(PID.TID 0000.0001) %MON DXV_max                      =   3.2380418162750E+05
(PID.TID 0000.0001) %MON DXV_min                      =   8.0152299824136E+04
(PID.TID 0000.0001) %MON DXV_mean                     =   2.8603970633619E+05
(PID.TID 0000.0001) %MON DXV_sd                       =   3.4145142117723E+04
(PID.TID 0000.0001) %MON YC_max                       =   8.7940663871962E+01
(PID.TID 0000.0001) %MON YC_min                       =  -8.7940663871962E+01
(PID.TID 0000.0001) %MON YC_mean                      =   0.0000000000000E+00
(PID.TID 0000.0001) %MON YC_sd                        =   3.8676242969072E+01
(PID.TID 0000.0001) %MON YG_max                       =   9.0000000000000E+01
(PID.TID 0000.0001) %MON YG_min                       =  -9.0000000000000E+01
(PID.TID 0000.0001) %MON YG_mean                      =  -1.1842378929335E-15
(PID.TID 0000.0001) %MON YG_sd                        =   3.8676895860710E+01
(PID.TID 0000.0001) %MON DYC_max                      =   3.2375185836900E+05
(PID.TID 0000.0001) %MON DYC_min                      =   1.1142031410131E+05
(PID.TID 0000.0001) %MON DYC_mean                     =   2.8605689051214E+05
(PID.TID 0000.0001) %MON DYC_sd                       =   3.4042087138252E+04
(PID.TID 0000.0001) %MON DYF_max                      =   3.2369947500827E+05
(PID.TID 0000.0001) %MON DYF_min                      =   1.2020820513318E+05
(PID.TID 0000.0001) %MON DYF_mean                     =   2.8605437324820E+05
(PID.TID 0000.0001) %MON DYF_sd                       =   3.4050524252539E+04
(PID.TID 0000.0001) %MON DYG_max                      =   3.2375195872773E+05
(PID.TID 0000.0001) %MON DYG_min                      =   1.0098378008791E+05
(PID.TID 0000.0001) %MON DYG_mean                     =   2.8603818508931E+05
(PID.TID 0000.0001) %MON DYG_sd                       =   3.4140406908005E+04
(PID.TID 0000.0001) %MON DYU_max                      =   3.2380418162750E+05
(PID.TID 0000.0001) %MON DYU_min                      =   8.0152299824136E+04
(PID.TID 0000.0001) %MON DYU_mean                     =   2.8603970633619E+05
(PID.TID 0000.0001) %MON DYU_sd                       =   3.4145142117723E+04
(PID.TID 0000.0001) %MON RA_max                       =   1.0479260248419E+11
(PID.TID 0000.0001) %MON RA_min                       =   1.4019007022556E+10
(PID.TID 0000.0001) %MON RA_mean                      =   8.2992246709265E+10
(PID.TID 0000.0001) %MON RA_sd                        =   1.7509089299457E+10
(PID.TID 0000.0001) %MON RAW_max                      =   1.0480965274559E+11
(PID.TID 0000.0001) %MON RAW_min                      =   1.2166903467143E+10
(PID.TID 0000.0001) %MON RAW_mean                     =   8.2992246709235E+10
(PID.TID 0000.0001) %MON RAW_sd                       =   1.7481917919656E+10
(PID.TID 0000.0001) %MON RAS_max                      =   1.0480965274559E+11
(PID.TID 0000.0001) %MON RAS_min                      =   1.2166903467143E+10
(PID.TID 0000.0001) %MON RAS_mean                     =   8.2992246709235E+10
(PID.TID 0000.0001) %MON RAS_sd                       =   1.7481917919656E+10
(PID.TID 0000.0001) %MON RAZ_max                      =   1.0484349334619E+11
(PID.TID 0000.0001) %MON RAZ_min                      =   8.8317900612505E+09
(PID.TID 0000.0001) %MON RAZ_mean                     =   8.2992246709235E+10
(PID.TID 0000.0001) %MON RAZ_sd                       =   1.7482297311044E+10
(PID.TID 0000.0001) %MON AngleCS_max                  =   9.9999994756719E-01
(PID.TID 0000.0001) %MON AngleCS_min                  =  -9.9968286884824E-01
(PID.TID 0000.0001) %MON AngleCS_mean                 =   3.3078922539000E-01
(PID.TID 0000.0001) %MON AngleCS_sd                   =   6.2496278958502E-01
(PID.TID 0000.0001) %MON AngleSN_max                  =   9.9968286884824E-01
(PID.TID 0000.0001) %MON AngleSN_min                  =  -9.9999994756719E-01
(PID.TID 0000.0001) %MON AngleSN_mean                 =  -3.3078922539000E-01
(PID.TID 0000.0001) %MON AngleSN_sd                   =   6.2496278958502E-01
(PID.TID 0000.0001) 
(PID.TID 0000.0001) SET_REF_STATE: PhiRef/g [m] at level Center (integer)
(PID.TID 0000.0001)                      and at level Interface (half-int.) :
(PID.TID 0000.0001)  K=  0.5  ;  r=       100000.0  ;  phiRef/g=        0.000
(PID.TID 0000.0001)  K=  1.0  ;  r=        95000.0  ;  phiRef/g=      431.199
(PID.TID 0000.0001)  K=  1.5  ;  r=        90000.0  ;  phiRef/g=     1256.487
(PID.TID 0000.0001)  K=  2.0  ;  r=        77500.0  ;  phiRef/g=     2105.998
(PID.TID 0000.0001)  K=  2.5  ;  r=        65000.0  ;  phiRef/g=     3775.246
(PID.TID 0000.0001)  K=  3.0  ;  r=        50000.0  ;  phiRef/g=     5536.327
(PID.TID 0000.0001)  K=  3.5  ;  r=        35000.0  ;  phiRef/g=     7908.298
(PID.TID 0000.0001)  K=  4.0  ;  r=        25000.0  ;  phiRef/g=    10440.915
(PID.TID 0000.0001)  K=  4.5  ;  r=        15000.0  ;  phiRef/g=    13806.721
(PID.TID 0000.0001)  K=  5.0  ;  r=         7500.0  ;  phiRef/g=    18190.889
(PID.TID 0000.0001)  K=  5.5  ;  r=            0.0  ;  phiRef/g=    39547.504
(PID.TID 0000.0001)  MDS_READ_FIELD: opening global file: topo.cpl_FM.bin
(PID.TID 0000.0001) // =======================================================
(PID.TID 0000.0001) // Field Model R_low (ini_masks_etc)
(PID.TID 0000.0001) // CMIN =          1.000000000000000E+32
(PID.TID 0000.0001) // CMAX =         -1.000000000000000E+32
(PID.TID 0000.0001) // CINT =          0.000000000000000E+00
(PID.TID 0000.0001) // SYMBOLS (CMIN->CMAX): -abcdefghijklmnopqrstuvwxyz+
(PID.TID 0000.0001) //                  0.0: .
(PID.TID 0000.0001) // RANGE I (Lo:Hi:Step):(    -1:   194:     1)
(PID.TID 0000.0001) // RANGE J (Lo:Hi:Step):(    34:    -1:    -1)
(PID.TID 0000.0001) // RANGE K (Lo:Hi:Step):(   1:   1:   1)
(PID.TID 0000.0001) // =======================================================
(PID.TID 0000.0001) // =======================================================
(PID.TID 0000.0001) // END OF FIELD                                          =
(PID.TID 0000.0001) // =======================================================
(PID.TID 0000.0001) 
(PID.TID 0000.0001) // =======================================================
(PID.TID 0000.0001) // Field Model Ro_surf (ini_masks_etc)
(PID.TID 0000.0001) // CMIN =          4.905667583685931E+04
(PID.TID 0000.0001) // CMAX =          1.000000000000000E+05
(PID.TID 0000.0001) // CINT =          1.886789783820026E+03
(PID.TID 0000.0001) // SYMBOLS (CMIN->CMAX): -abcdefghijklmnopqrstuvwxyz+
(PID.TID 0000.0001) //                  0.0: .
(PID.TID 0000.0001) // RANGE I (Lo:Hi:Step):(    -1:   194:     1)
(PID.TID 0000.0001) // RANGE J (Lo:Hi:Step):(    34:    -1:    -1)
(PID.TID 0000.0001) // RANGE K (Lo:Hi:Step):(   1:   1:   1)
(PID.TID 0000.0001) // =======================================================
(PID.TID 0000.0001) K =   1
(PID.TID 0000.0001) //                I=8       I=18      I=28      I=34      I=44      I=54      I=64      I=70      I=80      I=90      I=96      I=106     I=116     I=126     I=132     I=142     I=152     I=162     I=168     I=178     I=188
(PID.TID 0000.0001) // |--J--|101234567|901234567|901234567|901234123|567890123|567890123|567890123|563456789|123456789|123456789|123456785|789012345|789012345|789012345|789078901|345678901|345678901|345678901|901234567|901234567|901234567|901234
(PID.TID 0000.0001) //     34 ++++++++++++++++++zxwwwwwy++++nmnounnounny+zzzzzxxwwrnmmmqsuvvxxw+++++++++++++++++++++xxyzyxwtmlnnoy+++++++++++++++++++++++++++++++++++++++++++++++++++++++++++++++yxxwwxy++++++++++++++++++++++++++++++++++++++++++++++
(PID.TID 0000.0001) //     33 ++++++++++++++++++wttvwww++ywqstuuuouuuooy+yyzzyxwwqoomlmqtvutwyy++++++++++++++++++++xxxyyyxwunmnopx+++++++++++++++++++++++++++++++++++++++++++++++++++++++++++++++zyxwwwwy+++++++++++++++++++++++++++++++++++++++++++++
(PID.TID 0000.0001) //     32 ++++++++++++++++++wy+y+ww+xsrtwxyxvoyxvonrywwzywommlmpppqtttsuy++yy++yyy++++++++++++yxxyyxxxxvqmnpqw+++++++++++++++++++++++++++++++++++++++++++++++++++++++++++++++zyxwwwww+++++++++++++++++++++++++++++++++++++++++++++
(PID.TID 0000.0001) //     31 ++++++++++++++++wv++++++y+yxywxxyywqyywqnotsswwphglqttrnnqssswz++++++++++++++++++++zxxxyyxxyxwuport++++++++++++++++++++++++++++++++++++++++++++++++++++++++++++++++zyyxwwwww++++++++++++++++++++++++++++++++++++++++++++
(PID.TID 0000.0001) //     30 ++++++++++++++++w+++++++++++++wwxzyuxzyumnstsspmfdhmlhgfekosuxz+++++++++++++++++++++xxxyzyyyxwwsptx+++++++++++++++++++++++++++++++++++++++++++++++++++++++++++++zzzzyyxxwxxwwy++++++++++++++++++++++++++++++++++++++++++
(PID.TID 0000.0001) //     29 ++++++++++++++++++wwx+++++++++wwxyzxxyzxrnosspllkeabbaabdhmsvyzz++++++++++++++++++zxwwx++zyyxxwtps++++++++++++++++++++++++++++++++++++++++++++++++++++++++++++++yyzzyxxxxxxxxxz+++++++++++++++++++++++++++++++++++++++++
(PID.TID 0000.0001) //     28 +++++++++++++++xsvwxxxy+zzzzywwwwxyzwxyzypnorqnrwnc--aaabelsvxyx++++++++++++++++++zxxxx+++zyxxwvpr++++++++++++++++++++++++++++++++++++++++++++++++++++++++++++++yyzzyyxxyyyyyyzz++++++++++++++++++++++++++++++++++++++++
(PID.TID 0000.0001) //     27 +++++++++++++++vvwxxxxxxzzzyxwwvvwxyvwxyz+++trrwzwkdabccbenvwxxw++++++++++++++++++++xxyz++zyxxxwst+++++++++++++++++++++++++++++++++++++++++++++++++++++++++++++ywyz+zyxxyzz++zzz++++++++++++++++++++++++++++++++++++++++
(PID.TID 0000.0001) //     26 ++++++++++++++yxxyxwwwwxyyxxyxyyvwwxvwwxz++++yyyyyxvnmmmhhnuwxxy++++++++++++++++++++++++++zyxxxwss++++++++++++++++++++++++++++++++++++++++++++++++++++++++++++ywwx++zyyyxxxz++++z+++z+++++++++++++++++++++++++++++++++++
(PID.TID 0000.0001) //     25 +++++++++++++yyyyyxvuvwwwxwxyxy+vvwxvvwxzzx++++zxxxyxywwqorwxyy+++++++++++++++++++++++x++yyyxxxwss++++++++++++++++++++++++++++++++++++++++++++++++++++++++++++ywvwz+zzzwmkmrwyyzz+++z+++++++++++++++++++++++++++++++++++
(PID.TID 0000.0001) //     24 +++++++++++++yyyyyxwwwwstwwxyxy+wswxwswxyzz+++++xxxxy++xutvx++++++++++++++++++++++++++xx+yyzyxxvst++++++++++++++++++++++++++++++++++++++++++++++++++++++++++++ywxz++zzukgfghkqvxzz++zz++++++++++++++++++++++++++++++++++
(PID.TID 0000.0001) //     23 +++++++++++++zyyyyxxwwxxwwwxxxw++pvw+pvwxz++++++yxxy+++ywwwx+++++++++++++++++++++++oq+++xxzzyyxvsr++++++++++++++++++++++++++++++++++++++++++++++z+++++++++++++trwy+++wher+yumhkrwxy+wxy+++++++++++++++ww++++++++++++++++
(PID.TID 0000.0001) //     22 +++++++++++++zyyyyxyxxyyxwwwxxvr++wy++wy++++++++yxy+++++yxxw+++++++++++++++++++++++vlr+++x++zzywusw+++++++++++++++++++++++++++++++++++++++++++++xy++++++++++++wpqvy+xrht++++++xuuvwwuvww+++++++++++++lhhknw+++++++++++++
(PID.TID 0000.0001) //     21 +++++++++++++yxxyyyyxxyyxwwwxxrnv+++v++++++++++++yy++++++zyxy++++++++++++++++++++++vkkn++++++++xuutw++++++++++++++++++++++++++++++++++++++++++++xxx++++++++++++ywqsuop++++++++++++wu++wuwy++++++++++pkhghkklw+++++++++++
(PID.TID 0000.0001) //     20 +++++++++++++yxxyyyxxwxxxwwxxxpmqvwxqvwx+++++++++y++++++++++++++++++++++++++++++++++khknwt++++++wwwx++++++++++++++++++++++++++++++++++++++++++++xxxxxz++++++++++++wuw+++++++++++++++++++++++++x+++++okhhhhklr+++++++++++
(PID.TID 0000.0001) //     19 ++++++++++++++yyyyyyxwwwxwwxxwrnqwxyqwxy+++++++++++++++++y+++++++++++++++++++++++x++qlkmxx++++++xyy+++++++++++++++++++++++++++++++++++++++++++++yyxxwxz+++++++y++++++++++++++++++++++++++++++++ws++xqkhgghlow+++++++++++
(PID.TID 0000.0001) //     18 +++++++++++++++++++++wwxxxxwwwutwxz+wxz+++++++++++++++++yy++++yy++++++++w++++z++++++++rs++++++++++++++++++++++++++++++++++++++++++++++++++++++++yyyyxxz++++++y++++++++++++++++++++++++++++++++++xv+xqlhgfghkr+++++++++++
(PID.TID 0000.0001) //     17 +++++++++++++++++++++yxxyyxwturuy+++y++++++++++++++++++++yy++ywy++++++++v+++zy++++++++++++++++++++y+++++++++++++++++++++++++++++++++++++++++++++xxyzzyz++++zw+++++++++++++++++++++++++++++++++++xuwupkhgffghkq++++++++++
(PID.TID 0000.0001) //     16 +++++++++++++++++++++zxxxxxvrtqtz+++z+++++++++++++++++++++y++yy++++++z+++wwzz++++++++++++++++++++xxy++++++++++++++++++++++++++++++++++++++++++++xxyyyzz++++yw+++++++++++++++++++++++++++++++++++xsonnkhhggghho++++++++++
(PID.TID 0000.0001) //     15 zzzy++++++++++++++++++yxxxxvsusv+++++++++++++++++++++++++++z++++++++++yw+ytxy++xw++++++++++++++++wwx++++++++++++++++++++++++++++++++++++++++y+++yxxxxyz++++y+++++++++++++++++++++++++++++++++++++uoqsvkkhhhhkp++++++++++
(PID.TID 0000.0001) //     14 yyyxxy++++++++++++++++ywwwwvtttw++++++++++++++++++++++++++++++++++++++++++twxzzxwwwx++++++++++++zxwx+++++++++++++++++++++++++++++++++++++++++yy+xxwwxxxyz++v+++++++++++++++++++++++++++++++++++++woux+xmkhhklv++++++++++
(PID.TID 0000.0001) //     13 yxxxx++++++++++++++++++vvvvutsux+++++++++++++++++++++++++++++++++++++++++yvwxz++zzyy+++++++++++zyxwxx+++++++++++++++++++++++++++++++++++++++++++wvuttvwwvqot++++++++++++++++++++++++++++++++++++++vwy++plkkko+++++++++++
(PID.TID 0000.0001) //     12 xwwwy+++++++++++++++++xsuvuuuuwx++++++++++++++++++++++++++++++++++++++++++wwxzzzzzyy+++++++z+++xwwv++x++++++++++++++++++++++++++++++++++++++++++uqnmlossqoq++++++++++++++++++++++++++++++++++++++++++++qlkklw+++++++++++
(PID.TID 0000.0001) //     11 wwww++++++++++++++++++wtvvvvvvwy+++y+++y++++++++++++++++++++++++++zzzz+++wwwxyzzzzzz+++++zzyzywvtrv+++++++++++++++++++++++++++++++++++++++++++++pmmllnqpqw+++++++++++++++++++++++++++++++++++++++++++++qmmmq++++++++++++
(PID.TID 0000.0001) //     10 wwwx++++++++++++++++++xuvwwvuwy+++xw++xw+++++++++++++++++++++++++zyyyyzzywwwxyzzzzzzzzy++zxxxywvtsx+++++++++++++++++++++++++++++++++++++++++++++onnnoquw++++++++++++++++++++++++++++++++++++++++++++++++ww++++++++++++++
(PID.TID 0000.0001) //      9 wwwy+++++++++++++++++++tuvwvvw++++w+++w+++++++++++++++++++++++++zzyxyyyy+++yzzzzzzzzyxxzzywwxxyxxwx+++++++++++++++++++++++++++++++++++++++++++++rponrwy+++++++++++++++++++++++++++++++++++++++++++++++++++++++++++++++++
(PID.TID 0000.0001) //      8 wwy++++++++++++++++++++tuvvvwy++++x+++x+++++++++++++++++++++++yxxyxxxxyyyx+++zzzzzzyxyz+zzwwxxyxxwwxy+++++++++++++++++++++++++++++++++++++++++++tqposx++++++++++++++++++++++++++++++++++++++++++++++++++++++++++++++++++
(PID.TID 0000.0001) //      7 w++++++++++++++++++++++wvvusuz++++y+++y+++++++++++++++++++++++yxxxxxxxyzxsy++zzzzzzyyzzzzzxxxxwwwvvvxx+++++++++++++++++++++++++++++++++yxxxyy++++wxyy+++++++++++++++++++++++++++++++++++++++++++++++++++++++++++++++++++
(PID.TID 0000.0001) //      6 +++++++++++++++++++++++ywusqw+++++++++++++++++++++++++++++++++yxxxxxxxz+yrw++wzzzzyxyzzzzzxxxwuuwwxwxx++++++++++++++++++++++++++++++++zyyyyxxy++++++++++++++++++++++++++++++++++++++++++++++++++++++++++++++++++++++++++
(PID.TID 0000.0001) //      5 ++++++++++++++++++++++++vtrv++++++++++++++++++++++++++++++++++yxxyyyyyzzwtq++py++zyxzzzzzyxxxwsuwwxxxx+++++++++++++++++++++++++++++++yyxyzzzyy++++++++++++++++++++++++++++++++++++++++++++++++++++++++++++++++++++++++++
(PID.TID 0000.0001) //      4 ++++++++++++++++++++++++yyy+++++++++++++++++++++++++++++++++++yyyzzzzzzyxwsnnny++zyyyyzzywvtuvtvwwxxwx+++y+++y++++++++++++++++++w+++xxyyzzzzzz++++++++++++++++++++++++++++++++++++++++++++++++++++++++++++++++++++++++++
(PID.TID 0000.0001) //      3 +++++++++++++++++++++++++++++++++++++++++++++++++++++++++++++++++++++zzyxxtmnvz+zzzyxxxxwqpnotsuvwyxwy++++y+++y++++++++++++++++wv+++zyzzzzzyz+++++++++++++++++++++++++++++++++++++++++++++++++++++++++++++++++++++++++++
(PID.TID 0000.0001) //      2 ++++++++++++++++++++++++++++++++++++++++++++++++++++++++++++++++++++++zyyyunny+zzzzzxxwwrnmmmqsuvvxxw+++++y+++y++++++++++++++++w++++zyyz+zyyy+++++++++++++++++++++++++++++++++++++++++++++++++++++++++++++++++++++++++++
(PID.TID 0000.0001) //      1 ++++++++++++++++++++++++++++++++++++++++++++++++++++++++++++++++++++++++yxuooy+yyzzyxwwqoomlmqtvutwyy+++++y+++y++++++++++++++++y++++zyyyzzzzz+++++++++++++++++++++++++++++++++++++++++++++++++++++++++++y+++++++++++++++
(PID.TID 0000.0001) //      0 ++++++++++++++++++++++++++++++++++++++++++++++++++++++++++++++++++++++++wvvonrywwzywommlmpppqtttsuy++yy++yy++yy+++++++++++++++z++++zyyxxxyzz++++++++++++++++++++++++++++++++++++++++++++++++++++++++++++y+++++++yyz++++z
(PID.TID 0000.0001) //     -1 ++++++++++++++++++++++++++++++++++++++++++++++++++++++++++++++++++++++++qowqnotsswwphglqttrnnqssswz++++++++++++++++++++++++++++++++zyyxxxyz++++++++++++++++++++++++++++++++++++++++++++++++++++++++++++y+++++++yxyzzyz+y
(PID.TID 0000.0001) // =======================================================
(PID.TID 0000.0001) // END OF FIELD                                          =
(PID.TID 0000.0001) // =======================================================
(PID.TID 0000.0001) 
(PID.TID 0000.0001) // =======================================================
(PID.TID 0000.0001) // Field hFacC at iteration          0
(PID.TID 0000.0001) // CMIN =          2.000000000000000E-01
(PID.TID 0000.0001) // CMAX =          1.000000000000000E+00
(PID.TID 0000.0001) // CINT =          2.962962962962963E-02
(PID.TID 0000.0001) // SYMBOLS (CMIN->CMAX): -abcdefghijklmnopqrstuvwxyz+
(PID.TID 0000.0001) //                  0.0: .
(PID.TID 0000.0001) // RANGE I (Lo:Hi:Step):(    -1:   194:     1)
(PID.TID 0000.0001) // RANGE J (Lo:Hi:Step):(    34:    -1:    -1)
(PID.TID 0000.0001) // RANGE K (Lo:Hi:Step):(   1:   1:   1)
(PID.TID 0000.0001) // =======================================================
(PID.TID 0000.0001) K =   1
(PID.TID 0000.0001) //                I=8       I=18      I=28      I=34      I=44      I=54      I=64      I=70      I=80      I=90      I=96      I=106     I=116     I=126     I=132     I=142     I=152     I=162     I=168     I=178     I=188
(PID.TID 0000.0001) // |--J--|101234567|901234567|901234567|901234123|567890123|567890123|567890123|563456789|123456789|123456789|123456785|789012345|789012345|789012345|789078901|345678901|345678901|345678901|901234567|901234567|901234567|901234
(PID.TID 0000.0001) //     34 ++++++++++++++++++qe--bbap++++...........k+vtutskgc-..........hj-+++++++++++++++++++++hiorojd......k+++++++++++++++++++++++++++++++++++++++++++++++++++++++++++++++mgecdel++++++++++++++++++++++++++++++++++++++++++++++
(PID.TID 0000.0001) //     33 ++++++++++++++++++b...bac++k-............k+pqvspec-...........elk++++++++++++++++++++ihknomid......e+++++++++++++++++++++++++++++++++++++++++++++++++++++++++++++++tnhdc--l+++++++++++++++++++++++++++++++++++++++++++++
(PID.TID 0000.0001) //     32 ++++++++++++++++++ak+k+c-+e...bilg..lg....kaaro-..............k++kl++kkk++++++++++++mgillkije......d++++++++++++++++++++++++++++++++++++++++++++++++++++++++++++++ysnheba--+++++++++++++++++++++++++++++++++++++++++++++
(PID.TID 0000.0001) //     31 ++++++++++++++++-.++++++k+kfkdeipp-.pp-......db..............ar++++++++++++++++++++vkfilljikga.....+++++++++++++++++++++++++++++++++++++++++++++++++++++++++++++++yspmhbadcc++++++++++++++++++++++++++++++++++++++++++++
(PID.TID 0000.0001) //     30 ++++++++++++++++c+++++++++++++-citk.itk......................ju+++++++++++++++++++++hfipsnkmhc-...k+++++++++++++++++++++++++++++++++++++++++++++++++++++++++++++wuvrmlkgdhha-l++++++++++++++++++++++++++++++++++++++++++
(PID.TID 0000.0001) //     29 ++++++++++++++++++baf+++++++++-bfmvkfmvk.....................ouw++++++++++++++++++rkddi++tpoifa...++++++++++++++++++++++++++++++++++++++++++++++++++++++++++++++qoutnjjgfijgfhr+++++++++++++++++++++++++++++++++++++++++
(PID.TID 0000.0001) //     28 +++++++++++++++e..-fhjm+uuvtl---bfnwbfnwl.......-............kki++++++++++++++++++rjeej+++uoigc...++++++++++++++++++++++++++++++++++++++++++++++++++++++++++++++lovwolkjnpooqqrv++++++++++++++++++++++++++++++++++++++++
(PID.TID 0000.0001) //     27 +++++++++++++++..egiifekstspjd-..beo.beot+++...bta..........bjhd++++++++++++++++++++kint++xpige-..+++++++++++++++++++++++++++++++++++++++++++++++++++++++++++++ldmwytniiouwxxxvw++++++++++++++++++++++++++++++++++++++++
(PID.TID 0000.0001) //     26 ++++++++++++++kfimidbcdgkmiknill.-bj.-bjw++++llpmpe.........bfgl++++++++++++++++++++++++++vpjiga..++++++++++++++++++++++++++++++++++++++++++++++++++++++++++++m--iyzvnmnffiszxxxv+++v+++++++++++++++++++++++++++++++++++
(PID.TID 0000.0001) //     25 +++++++++++++qmmonf...b-agcgnil+..bj..bjutg++++vhhknhkc-...-ill+++++++++++++++++++++++j++qopkih-..++++++++++++++++++++++++++++++++++++++++++++++++++++++++++++l-.euzwtr-....dlpus+++s+++++++++++++++++++++++++++++++++++
(PID.TID 0000.0001) //     24 ++++++++++++xplmnng--a-..achmil+-.-i-.-inus+++++ighho++e...h++++++++++++++++++++++++++jh+pqslih...++++++++++++++++++++++++++++++++++++++++++++++++++++++++++++lbkrxxxu.........isw++sw++++++++++++++++++++++++++++++++++
(PID.TID 0000.0001) //     23 ++++++++++++ysnmmlhf-bifdcbgijc++..c+..cht++++++lgil+++ob-bg+++++++++++++++++++++++..+++jjrwpli...++++++++++++++++++++++++++++++++++++++++++++++v+++++++++++++..-qyyxc...+l.....afm+afm+++++++++++++++-c++++++++++++++++
(PID.TID 0000.0001) //     22 ++++++++++++ysonmmjkfhmnia-cfi..++al++al++++++++ofk+++++nigc+++++++++++++++++++++++...+++h++rrna..a+++++++++++++++++++++++++++++++++++++++++++++km++++++++++++e...nxi...++++++e...-d..-d+++++++++++++.....-+++++++++++++
(PID.TID 0000.0001) //     21 ++++++++++++yojkmnmlhjmmha-cfe...+++.++++++++++++ll++++++spjl++++++++++++++++++++++....++++++++j...a++++++++++++++++++++++++++++++++++++++++++++fgi++++++++++++l-.....++++++++++++e.++e.-l++++++++++........-+++++++++++
(PID.TID 0000.0001) //     20 +++++++++++++lfhlnljecfiidbgie....af..af+++++++++l+++++++++y++++++++++++++++++++++++....-.++++++-cej++++++++++++++++++++++++++++++++++++++++++++iihhjr++++++++++++-.c+++++++++++++++++++++++++j+++++.........+++++++++++
(PID.TID 0000.0001) //     19 ++++++++++++++lkoqpqi--bfdcegd...-fm.-fm+++++++++++++++++q+++++++++++++++++++++++j++....jj++++++kmp+++++++++++++++++++++++++++++++++++++++++++++llkidfsz++++++l++++++++++++++++++++++++++++++++b.++j........a+++++++++++
(PID.TID 0000.0001) //     18 +++++++++++++++++++++bbehgeb--..-kr+-kr+++++++++++++++++ll++++ll++++++++-++++t++++++++..++++++++++++++++++++++++++++++++++++++++++++++++++++++++llnoihr++++++l++++++++++++++++++++++++++++++++++j.+j.........+++++++++++
(PID.TID 0000.0001) //     17 +++++++++++++++++++++lghlkh-....lx++lx+++++++++++++++++++lp++lal++++++++.+++ro++++++++++++++++++++o+++++++++++++++++++++++++++++++++++++++++++++jkorrqv++++tc+++++++++++++++++++++++++++++++++++j.a...........++++++++++
(PID.TID 0000.0001) //     16 yy+++++++++++++++++++rhhkkg.....r+++r+++++++++++++++++++++l++pl++++++r+++abqw++++++++++++++++++++fim++++++++++++++++++++++++++++++++++++++++++++iimoorwz+++n-+++++++++++++++++++++++++++++++++++j.............++++++++++
(PID.TID 0000.0001) //     15 sstm++++++++++++++++++lfghe.....+++++++++++++++++++++++++++s++++++++++l-+k.eq++fc++++++++++++++++dbj++++++++++++++++++++++++++++++++++++++++o+++kjijkntx+++l+++++++++++++++++++++++++++++++++++++.............++++++++++
(PID.TID 0000.0001) //     14 pnnghl++++++++++++++++l--aa....a++++++++++++++++++++++++++++++++++++++++++.-kxwjccbj++++++++++++ufah+++++++++++++++++++++++++++++++++++++++++kl+geddegins++.+++++++++++++++++++++++++++++++++++++a..i+j.......++++++++++
(PID.TID 0000.0001) //     13 mhhei++++++++++++++++++........e+++++++++++++++++++++++++++++++++++++++++k.-guy+vsll+++++++++++uqe-jj+++++++++++++++++++++++++++++++++++++++++++a.....--....++++++++++++++++++++++++++++++++++++++.cn++......+++++++++++
(PID.TID 0000.0001) //     12 hedcn+++++++++++++++++g.......-g+++++++++++++++++++++++++++++++++++++x++++bbgsvwwuqp+++++++r+++gb-.++k++++++++++++++++++++++++++++++++++++++++++...........++++++++++++++++++++++++++++++++++++++++++++.....a+++++++++++
(PID.TID 0000.0001) //     11 bbcd++++++++++++++++++c.......al+++l+++l++++++++++++++++++++++++++sttt+++cabfqstuutu+++++wsqtna....+++++++++++++++++++++++++++++++++++++++++++++.........b+++++++++++++++++++++++++++++++++++++++++++++.....++++++++++++
(PID.TID 0000.0001) //     10 aa-e++++++++++++++++++e..--..-k+++gd++gd+++++++++++++++++++++++++vkknpswk-cafqsrrttuusqxytiijkb...j+++++++++++++++++++++++++++++++++++++++++++++.......-++++++++++++++++++++++++++++++++++++++++++++++++-a++++++++++++++
(PID.TID 0000.0001) //      9 d--l+++++++++++++++++++...-..c++++a+++a+++++++++++++++++++++++++urlkkmoq+++prtsrsuttmghtxnabejljh-j+++++++++++++++++++++++++++++++++++++++++++++.....-l+++++++++++++++++++++++++++++++++++++++++++++++++++++++++++++++++
(PID.TID 0000.0001) //      8 c-l++++++++++++++++++++.....-o++++f+++f+++++++++++++++++++++++ohilkihhmpke++yvsstutqjnsxxrddfikie--ko+++++++++++++++++++++++++++++++++++++++++++.....f++++++++++++++++++++++++++++++++++++++++++++++++++++++++++++++++++
(PID.TID 0000.0001) //      7 c++++++++++++++++++++++a.....s++++l+++l+++++++++++++++++++++++nggiigfhouf.k++rvtstsnmuxwvshghgc--...ek+++++++++++++++++++++++++++++++++piffkk++++dekk+++++++++++++++++++++++++++++++++++++++++++++++++++++++++++++++++++
(PID.TID 0000.0001) //      6 +++++++++++++++++++++++l-...a+++++++++++++++++++++++++++++++++nhhiiggjtyk.-++-swwumhowxwwtiihb..-bfafk++++++++++++++++++++++++++++++++sklnlifm++++++++++++++++++++++++++++++++++++++++++++++++++++++++++++++++++++++++++
(PID.TID 0000.0001) //      5 ++++++++++++++++++++++++....++++++++++++++++++++++++++++++++++oijlnmnqvxd..++.l+zuliquvxwqkhe-..-bjgge+++++++++++++++++++++++++++++++nmjottuqp++++++++++++++++++++++++++++++++++++++++++++++++++++++++++++++++++++++++++
(PID.TID 0000.0001) //      4 ++++++++++++++++++++++++kkk+++++++++++++++++++++++++++++++++++qmosuutttqeb....m++toooorul-......--jgck+++k+++k++++++++++++++++++-+++jglpsuuvvu++++++++++++++++++++++++++++++++++++++++++++++++++++++++++++++++++++++++++
(PID.TID 0000.0001) //      3 +++++++++++++++++++++++++++++++++++++++++++++++++++++++++++++++++++++vrnii....tyvtrqjhhh-........-kjak++++k+++k++++++++++++++++-.++xtprtvwtpr+++++++++++++++++++++++++++++++++++++++++++++++++++++++++++++++++++++++++++
(PID.TID 0000.0001) //      2 ++++++++++++++++++++++++++++++++++++++++++++++++++++++++++++++++++++++sppl...k+vtutskgc-..........hj-+++++k+++k++++++++++++++++-++++wqpuyxqnp+++++++++++++++++++++++++++++++++++++++++++++++++++++++++++++++++++++++++++
(PID.TID 0000.0001) //      1 ++++++++++++++++++++++++++++++++++++++++++++++++++++++++++++++++++++++++pg...k+pqvspec-...........elk+++++k+++k++++++++++++++++l++++somotvtrs+++++++++++++++++++++++++++++++++++++++++++++++++++++++++++l+++++++++++++++
(PID.TID 0000.0001) //      0 ++++++++++++++++++++++++++++++++++++++++++++++++++++++++++++++++++++++++-.....kaaro-..............k++kl++kk++kk+++++++++++++++r+++xtpmhhjqtv++++++++++++++++++++++++++++++++++++++++++++++++++++++++++++k+++++++mpu++++s
(PID.TID 0000.0001) //     -1 ++++++++++++++++++++++++++++++++++++++++++++++++++++++++++++++++++++++++..-......db..............ar++++++++++++++++++++++++++++++++tnkhfgnt++++++++++++++++++++++++++++++++++++++++++++++++++++++++++++o+++++++kfqvrps+p
(PID.TID 0000.0001) // =======================================================
(PID.TID 0000.0001) // END OF FIELD                                          =
(PID.TID 0000.0001) // =======================================================
(PID.TID 0000.0001) 
(PID.TID 0000.0001) // =======================================================
(PID.TID 0000.0001) // Field hFacW at iteration          0
(PID.TID 0000.0001) // CMIN =          2.000000000000000E-01
(PID.TID 0000.0001) // CMAX =          1.000000000000000E+00
(PID.TID 0000.0001) // CINT =          2.962962962962963E-02
(PID.TID 0000.0001) // SYMBOLS (CMIN->CMAX): -abcdefghijklmnopqrstuvwxyz+
(PID.TID 0000.0001) //                  0.0: .
(PID.TID 0000.0001) // RANGE I (Lo:Hi:Step):(    -1:   194:     1)
(PID.TID 0000.0001) // RANGE J (Lo:Hi:Step):(    34:    -1:    -1)
(PID.TID 0000.0001) // RANGE K (Lo:Hi:Step):(   1:   1:   1)
(PID.TID 0000.0001) // =======================================================
(PID.TID 0000.0001) K =   1
(PID.TID 0000.0001) //                I=8       I=18      I=28      I=34      I=44      I=54      I=64      I=70      I=80      I=90      I=96      I=106     I=116     I=126     I=132     I=142     I=152     I=162     I=168     I=178     I=188
(PID.TID 0000.0001) // |--J--|101234567|901234567|901234567|901234123|567890123|567890123|567890123|563456789|123456789|123456789|123456785|789012345|789012345|789012345|789078901|345678901|345678901|345678901|901234567|901234567|901234567|901234
(PID.TID 0000.0001) //     34 ++++++++++++++++++qe---baap+++............kvtttskgc-...........h--++++k.++++++++++++++hhioojd.......k++++++.+++++++++++++++++++++++++++++++++++.+++++++++++++++++++mgeccdel++++++++.+++++++++++++++++++++++++++++++++++.
(PID.TID 0000.0001) //     33 ++++++++++++++++++b....aac+k-.............kppqspec-............ekk++++k++++++++++++++ihhknmid.......e++++++++++++++++++++++++++++++++++++++++++++++++++++++++++++++tnhdc---l++++++++++++++++++++++++++++++++++++++++++++
(PID.TID 0000.0001) //     32 ++++++++++++++++++aakkkc--e....big..ig.....aaao-...............k+kkl+kkk++++++++++++mggilkiie.......d+++++++++++++++++++++++++++++++++++++++++++++++++++++++++++++ysnheba---++++++++++++++++++++++++++++++++++++++++++++
(PID.TID 0000.0001) //     31 ++++++++++++++++-..+++++kkkffddeip-.ip-.......b...............ar+++++++++++++++++++vkffiljiiga......++++++++++++++++++++++++++++++++++++++++++++++++++++++++++++++yspmhbaaccc+++++++++++++++++++++++++++++++++++++++++++
(PID.TID 0000.0001) //     30 ++++++++++++++++cc++++++++++++--cik.cik.......................ju++++++++++++++++++++hffipnkkhc-....k++++++++++++++++++++++++++++++++++++++++++++++++++++++++++++wuurmlkgddha--l+++++++++++++++++++++++++++++++++++++++++
(PID.TID 0000.0001) //     29 ++++++++++++++++++baaf++++++++--bfmkbfmk......................ouw+++++++++++++++++rkdddi+tpoifa....+++++++++++++++++++++++++++++++++++++++++++++++++++++++++++++qootnjjgffigffhr++++++++++++++++++++++++++++++++++++++++
(PID.TID 0000.0001) //     28 +++++++++++++++e...-fhjmuuutl----bfn-bfnl.....................kii+++++++++++++++++rjeeej++uoigc....+++++++++++++++++++++++++++++++++++++++++++++++++++++++++++++llovolkjjnoooqqrv+++v+++++++++++++++++++++++++++++++++++
(PID.TID 0000.0001) //     27 +++++++++++++++...egifeeksspjd-...be..beot++....ba...........bhdd+++++++++++++++++++kiint+xpige-...++++++++++++++++++++++++++++++++++++++++++++++++++++++++++++lddmwtniiiouwxxvvw+++w+++++++++++++++++++++++++++++++++++
(PID.TID 0000.0001) //     26 ++++++++++++++kffiidbbcdgkiikiil..-b..-bjw+++lllmme..........bfgl+++++++++++++++++++++++++vpjiga...+++++++++++++++++++++++++++++++++++++++++++++++++++++++++++m---iyvnmmfffisxxxvv++vv++++++++++++++++++++++++++++++++++
(PID.TID 0000.0001) //     25 +++++++++++++qmmmnf....--accgiil...b...bjtgg+++vhhhkhhc-....-ill++++++++++++++++++++++jj+qookih-...+++++++++++++++++++++++++++++++++++++++++++++++++++++++++++l-..euwtr-.....dlpss++ss++++++++++++++++++++++++++++++++++
(PID.TID 0000.0001) //     24 ++++++++++++xpllmng----...achiil-..--..-inss++++igghho+e....h+++++++++++++++++++++++++jhhppqlih....+++++++++++++++++++++++++++++++++++++++++++++++++++++++++++lbbkrxxu..........isw+isw+++++++++++++++++++++++++++++++++
(PID.TID 0000.0001) //     23 ++++++++++++ysnmmlhf--bfdcbbgicc+...+...cht+++++lggil++ob--bg++++++++++++++++++++++...++jjjrpli....+++++++++++++++++++++++++++++++++++++++++++++vv++++++++++++...-qyxc....l......afm.afm++++++++++++++--c+++++++++++++++
(PID.TID 0000.0001) //     22 ++++++++++++ysonmmjjffhmia--cf...+aa.+aal+++++++offk++++nigcc++++++++++++++++++++++....++hh+rrna...a++++++++++++++++++++++++++++++++++++++++++++hkm+++++++++++e....ni....+++++e....-...-d++++++++++++......-++++++++++++
(PID.TID 0000.0001) //     21 ++++++++++++yojjkmmlhhjmha--ce....++..+++++++++++lll+++++spjjl+++++++++++++++++++++.....+++++++j....a+++++++++++++++++++++++++++++++++++++++++++ffgi+++++++++++l-......+++++++++++e.++e..-l+++++++++.........-++++++++++
(PID.TID 0000.0001) //     20 +++++++++++++lffhlljeccfidbbge.....a...af++++++++ll++++++++yy+++++++++++++++++++++++.......+++++--cej+++++++++++++++++++++++++++++++++++++++++++iihhhjr+++++++++++-..c++++++++++++++++++++++++jj++++..........++++++++++
(PID.TID 0000.0001) //     19 ++++++++++++++lkkoppi---bdcced....-f..-fm++++++++++++++++qq++++++++++++++++++++++jj+.....jj+++++kkmp++++++++++++++++++++++++++++++++++++++++++++llkiddfsz+++++ll+++++++++++++++++++++++++++++++b..+j.........a++++++++++
(PID.TID 0000.0001) //     18 w++++++++++++++++++++bbbegeb--...-kr.-kr++++++++++++++++lll+++lll+++++++--+++tt+++++++...+++++++++++++++++++++++++++++++++++++++++++++++++++++++lllnihhr+++++ll+++++++++++++++++++++++++++++++++j..j..........++++++++++
(PID.TID 0000.0001) //     17 u++++++++++++++++++++lgghkh-.....lx+.lx++++++++++++++++++llp+laal+++++++..++roo+++++++++++++++++++oo++++++++++++++++++++++++++++++++++++++++++++jjkorqqv+++tcc++++++++++++++++++++++++++++++++++j..............+++++++++
(PID.TID 0000.0001) //     16 vyy++++++++++++++++++rhhhkg......r++.r++++++++++++++++++++ll+pll+++++rr++aabqw+++++++++++++++++++ffim+++++++++++++++++++++++++++++++++++++++++++iiimoorwz++n--++++++++++++++++++++++++++++++++++j..............+++++++++
(PID.TID 0000.0001) //     15 rssmm+++++++++++++++++lffge......+++.++++++++++++++++++++++ss+++++++++l-+k..eq+fcc+++++++++++++++dbbj+++++++++++++++++++++++++++++++++++++++oo++kjiijkntx++ll++++++++++++++++++++++++++++++++++++..............+++++++++
(PID.TID 0000.0001) //     14 mnngghl+++++++++++++++l---a.....a+++a+++++++++++++++++++++++++++++++++++++..-kwjccbbj+++++++++++ufaah++++++++++++++++++++++++++++++++++++++++kklgedddegins+..++++++++++++++++++++++++++++++++++++a...ij........+++++++++
(PID.TID 0000.0001) //     13 lhheei+++++++++++++++++.........e+++e++++++++++++++++++++++++++++++++++++k..-guyvslll++++++++++uqe--jj++++++++++++++++++++++++++++++++++++++++++a......-.....+++++++++++++++++++++++++++++++++++++..cn+.......++++++++++
(PID.TID 0000.0001) //     12 hedccn++++++++++++++++g........-g+++g++++++++++++++++++++++++++++++++xx+++bbbgsvwuqpp++++++rr++gb-..+kk+++++++++++++++++++++++++++++++++++++++++............+++++++++++++++++++++++++++++++++++++++++++......a++++++++++
(PID.TID 0000.0001) //     11 bbbcd+++++++++++++++++c........al++ll++ll+++++++++++++++++++++++++ssttt++caabfqstuttu++++wsqqna.....++++++++++++++++++++++++++++++++++++++++++++..........b++++++++++++++++++++++++++++++++++++++++++++......+++++++++++
(PID.TID 0000.0001) //     10 aa--e+++++++++++++++++e...-...-k++gd++gdd++++++++++++++++++++++++vkkknpsk--aafqrrrttusqqxtiiijb....j++++++++++++++++++++++++++++++++++++++++++++........-+++++++++++++++++++++++++++++++++++++++++++++++--a+++++++++++++
(PID.TID 0000.0001) //      9 d---l++++++++++++++++++.......c+++aa++aa++++++++++++++++++++++++urlkkkmo+++pprsrrsttmgghtnaabejjh--j++++++++++++++++++++++++++++++++++++++++++++......-l++++++++++++++++++++++++++++++++++++++++++++++++++++++++++++++++
(PID.TID 0000.0001) //      8 c--l+++++++++++++++++++......-o+++ff++ff++++++++++++++++++++++ohhikihhhmkee+yvsssttqjjnsxrdddfiie---ko++++++++++++++++++++++++++++++++++++++++++......f+++++++++++++++++++++++++++++++++++++++++++++++++++++++++++++++++
(PID.TID 0000.0001) //      7 ac+++++++++++++++++++++a......s+++ll++ll++++++++++++++++++++++ngggigffhof..k+rrtsssnmmuwvshgggc--....ek++++++++++++++++++++++++++++++++pifffkk+++ddekk++++++++++++++++++++++++++++++++++++++++++++++++++++++++++++++++++
(PID.TID 0000.0001) //      6 -++++++++++++++++++++++l-....a++++++++++++++++++++++++++++++++nhhhigggjtk..-+--swumhhowwwtiihb...-baafk+++++++++++++++++++++++++++++++skklliffm+++++++++++++++++++++++++++++++++++++++++++++++++++++++++++++++++++++++++
(PID.TID 0000.0001) //      5 l+++++++++++++++++++++++.....+++++++++++++++++++++++++++++++++oiijlmmnqvd...+..lzuliiquvwqkhe-...-bggee++++++++++++++++++++++++++++++nmjjottqpp+++++++++++++++++++++++++++++++++++++++++++++++++++++++++++++++++++++++++
(PID.TID 0000.0001) //      4 ++++++++++++++++++++++++kkkk++++++++++++++++++++++++++++++++++qmmosutttq-b.....m+tooooorl-.......--gcck++kk++kk+++++++++++++++++--++jgglpsuuvuu+++++++++++++++++++++++++++++++++++++++++++++++++++++++++++++++++++++++++
(PID.TID 0000.0001) //      3 +++++++++++++++++++++++++++++++++++++++++++++++++++++++++++++++++++++vrnci.....tvtrqjhhh-.........-jaak+++kk++kk+++++++++++++++-..+xtpprtvtppr++++++++++++++++++++++++++++++++++++++++++++++++++++++++++++++++++++++++++
(PID.TID 0000.0001) //      2 ++++++++++++++++++++++++++++++++++++++++++++++++++++++++++++++++++++++spil....kvtttskgc-...........h--++++kk++kk+++++++++++++++--+++wqppuxqnnp++++++++++++++++++++++++++++++++++++++++++++++++++++++++++++++++++++++++++
(PID.TID 0000.0001) //      1 ++++++++++++++++++++++++++++++++++++++++++++++++++++++++++++++++++++++++pg....kppqspec-............ekk++++kk++kk+++++++++++++++ll+++sommottrrs++++++++++++++++++++++++++++++++++++++++++++++++++++++++++ll++++++++++++++
(PID.TID 0000.0001) //      0 ++++++++++++++++++++++++++++++++++++++++++++++++++++++++++++++++++++++++-......aaao-...............k+kkl+kkk+kkk++++++++++++++rr++xtpmhhhjqtv+++++++++++++++++++++++++++++++++++++++++++++++++++++++++++kk++++++mmpu+++s
(PID.TID 0000.0001) //     -1 +++++++++++++++++++++++++++++++++++++++++++++++++++++++++++++++++++++++p..-.......b...............ar+++++++++++++++++++++++++++++++tnkhffgnt+++++++++++++++++++++++++++++++++++++++++++++++++++++++++++oo++++++kffqrpps+
(PID.TID 0000.0001) // =======================================================
(PID.TID 0000.0001) // END OF FIELD                                          =
(PID.TID 0000.0001) // =======================================================
(PID.TID 0000.0001) 
(PID.TID 0000.0001) // =======================================================
(PID.TID 0000.0001) // Field hFacS at iteration          0
(PID.TID 0000.0001) // CMIN =          2.000000000000000E-01
(PID.TID 0000.0001) // CMAX =          1.000000000000000E+00
(PID.TID 0000.0001) // CINT =          2.962962962962963E-02
(PID.TID 0000.0001) // SYMBOLS (CMIN->CMAX): -abcdefghijklmnopqrstuvwxyz+
(PID.TID 0000.0001) //                  0.0: .
(PID.TID 0000.0001) // RANGE I (Lo:Hi:Step):(    -1:   194:     1)
(PID.TID 0000.0001) // RANGE J (Lo:Hi:Step):(    34:    -1:    -1)
(PID.TID 0000.0001) // RANGE K (Lo:Hi:Step):(   1:   1:   1)
(PID.TID 0000.0001) // =======================================================
(PID.TID 0000.0001) K =   1
(PID.TID 0000.0001) //                I=8       I=18      I=28      I=34      I=44      I=54      I=64      I=70      I=80      I=90      I=96      I=106     I=116     I=126     I=132     I=142     I=152     I=162     I=168     I=178     I=188
(PID.TID 0000.0001) // |--J--|101234567|901234567|901234567|901234123|567890123|567890123|567890123|563456789|123456789|123456789|123456785|789012345|789012345|789012345|789078901|345678901|345678901|345678901|901234567|901234567|901234567|901234
(PID.TID 0000.0001) //     34 ++++++++++++++++++b...baap+k-........g...k+pquspec-...........ej-+++++k.+++++++++++++ihinomid......e+++++++.+++++++++++++++++++++++++++++++++++.+++++++++++++++++++mgecc--l++++++++.+++++++++++++++++++++++++++++++++++.
(PID.TID 0000.0001) //     33 ++++++++++++++++++a...ba-+e...............kaaro-..............elkkl++kkk++++++++++++mghklkiid......d++++++++++++++++++++++++++++++++++++++++++++++++++++++++++++++ysnhdb---+++++++++++++++++++++++++++++++++++++++++++++
(PID.TID 0000.0001) //     32 ++++++++++++++++-.ak+k+c-+e...bilg..lg.......db...............k++kl++kkk+++++++++++vkfilljije......d++++++++++++++++++++++++++++++++++++++++++++++++++++++++++++++ysnheba--c++++++++++++++++++++++++++++++++++++++++++++
(PID.TID 0000.0001) //     31 ++++++++++++++++-.++++++k+kfkd-cip-.ip-......................ar++++++++++++++++++++vhfilljikga.....+++++++++++++++++++++++++++++++++++++++++++++++++++++++++++++wuvrmlhbadca-l++++++++++++++++++++++++++++++++++++++++++
(PID.TID 0000.0001) //     30 ++++++++++++++++c+baf+++++++++-bfmk.fmk......................juw++++++++++++++++++rkddipsnkmhc-...k+++++++++++++++++++++++++++++++++++++++++++++++++++++++++++++qourmjjgdhha-hr+++++++++++++++++++++++++++++++++++++++++
(PID.TID 0000.0001) //     29 +++++++++++++++e..-afjm+uuvtl---bfnkbfnk.....................kki++++++++++++++++++rjddi++tpoifa...++++++++++++++++++++++++++++++++++++++++++++++++++++++++++++++loutnjjgfijgfhrv++++++++++++++++++++++++++++++++++++++++
(PID.TID 0000.0001) //     28 +++++++++++++++...-fhfekstspj--..beo.beol.......-............jhd++++++++++++++++++rjeejt++uoigc...+++++++++++++++++++++++++++++++++++++++++++++++++++++++++++++ldmvwoliinpooqqrv++++++++++++++++++++++++++++++++++++++++
(PID.TID 0000.0001) //     27 ++++++++++++++k..egdbcdgkmikjd-..-bj.-bjt+++...bma..........bfgd++++++++++++++++++++kint++vpige-..++++++++++++++++++++++++++++++++++++++++++++++++++++++++++++m--iwytniiffisxxvwv+++v+++++++++++++++++++++++++++++++++++
(PID.TID 0000.0001) //     26 +++++++++++++qkfimf...b-agcgnill..bj..bjutg++llphhe.........bfgl++++++++++++++++++++++j++qopjig-..++++++++++++++++++++++++++++++++++++++++++++++++++++++++++++l-.euzvnm-....dlpus+++s+++++++++++++++++++++++++++++++++++
(PID.TID 0000.0001) //     25 ++++++++++++xplmnnf...-..acgmil+..-i..-intg++++vhghhhkc-...-ill+++++++++++++++++++++++jh+popkih...++++++++++++++++++++++++++++++++++++++++++++++++++++++++++++l-.euxwt.........isw++sw++++++++++++++++++++++++++++++++++
(PID.TID 0000.0001) //     24 ++++++++++++xplmmlg--a-..abgiic+-..c-..chts+++++ighho++e...g+++++++++++++++++++++++..+jhjjqslih...++++++++++++++++++++++++++++++++++++++++++++++v+++++++++++++..-qxxxc..........afm+afm+++++++++++++++-c++++++++++++++++
(PID.TID 0000.0001) //     23 ++++++++++++ysnmmlhf-bifda-cfi..+..c+..cht++++++lfil+++ob-bc+++++++++++++++++++++++...++jhrwpli...a+++++++++++++++++++++++++++++++++++++++++++++km++++++++++++....nxi....+l.......-d..-d+++++++++++++.....-+++++++++++++
(PID.TID 0000.0001) //     22 ++++++++++++yojkmmjkfhmmha-cfe...+al.+al++++++++ofk+++++nigcl++++++++++++++++++++++....++h++rrna...a++++++++++++++++++++++++++++++++++++++++++++fgi+++++++++++e.........++++++e...-...-.-l++++++++++........-+++++++++++
(PID.TID 0000.0001) //     21 ++++++++++++ylfhlnljecfiha-cfe....af..af+++++++++ll++++++spjl++++++++++++++++++++++.....-.+++++j...a++++++++++++++++++++++++++++++++++++++++++++fghhjr+++++++++l-.....++++++++++++e.++e.-l++++j+++++.........+++++++++++
(PID.TID 0000.0001) //     20 +++++++++++++lfhlnlje--bfdbegd....af..af+++++++++l+++++++q+y+++++++++++++++++++++j++....-.++++++-cej++++++++++++++++++++++++++++++++++++++++++++iihhdfsz++++++l+++-.c+++++++++++++++++++++++++jb.++j.........+++++++++++
(PID.TID 0000.0001) //     19 ++++++++++++++lkoqpqi--bfdcb--...-fm.-fm++++++++++++++++ll++++ll++++++++-++++t+++j++....jj++++++kmp+++++++++++++++++++++++++++++++++++++++++++++llkidfrz+++++ll++++++++++++++++++++++++++++++++b..+j.........+++++++++++
(PID.TID 0000.0001) //     18 +++++++++++++++++++++bbehge-....-kr+-kr+++++++++++++++++llp++lal++++++++.+++ro++++++++..++++++++++o+++++++++++++++++++++++++++++++++++++++++++++jknoihr++++tcl++++++++++++++++++++++++++++++++++j.a...........++++++++++
(PID.TID 0000.0001) //     17 yy+++++++++++++++++++lghkkg.....lx++lx+++++++++++++++++++ll++lal+++++r++.abqro+++++++++++++++++++fim++++++++++++++++++++++++++++++++++++++++++++iimooqvz+++n-+++++++++++++++++++++++++++++++++++j.............++++++++++
(PID.TID 0000.0001) //     16 sstm+++++++++++++++++rhfghe.....r+++r+++++++++++++++++++++ls+pl++++++rl-+a.eq++fc++++++++++++++++dbj++++++++++++++++++++++++++++++++++++++++o+++iiijkntx+++l-+++++++++++++++++++++++++++++++++++j.............++++++++++
(PID.TID 0000.0001) //     15 pnnghl++++++++++++++++l--aa.....+++++++++++++++++++++++++++s++++++++++l-+k.-kxwfccbj++++++++++++udah++++++++++++++++++++++++++++++++++++++++okl+geddegins++.+++++++++++++++++++++++++++++++++++++.............++++++++++
(PID.TID 0000.0001) //     14 mhhehl++++++++++++++++l........a+++++++++++++++++++++++++++++++++++++++++k.-guwjccbj+++++++++++uqe-hj++++++++++++++++++++++++++++++++++++++++kl+a.....--....+++++++++++++++++++++++++++++++++++++a..i+j.......++++++++++
(PID.TID 0000.0001) //     13 hedci+++++++++++++++++g........e+++++++++++++++++++++++++++++++++++++x+++k.-gsvwvsll+++++++r+++gb-.jjk++++++++++++++++++++++++++++++++++++++++++............++++++++++++++++++++++++++++++++++++++.cn++......+++++++++++
(PID.TID 0000.0001) //     12 bbccn+++++++++++++++++c.......-g+++l+++l++++++++++++++++++++++++++sttt+++cabfqstuuqp+++++wsqtna....++k++++++++++++++++++++++++++++++++++++++++++...........++++++++++++++++++++++++++++++++++++++++++++.....a+++++++++++
(PID.TID 0000.0001) //     11 aa-d++++++++++++++++++c.......al++gd++gd+++++++++++++++++++++++++vkknpswk-aafqsrrttuusqxytiijka....+++++++++++++++++++++++++++++++++++++++++++++.........b+++++++++++++++++++++++++++++++++++++++++++++.....++++++++++++
(PID.TID 0000.0001) //     10 a--e++++++++++++++++++e...-..-k+++ad++ad++++++++++++++++++++++++urkkkmoqk-cafqsrrtttmghtxnabejb...j+++++++++++++++++++++++++++++++++++++++++++++.......-++++++++++++++++++++++++++++++++++++++++++++++++-a++++++++++++++
(PID.TID 0000.0001) //      9 c--l+++++++++++++++++++......c++++a+++a+++++++++++++++++++++++ohilkihhmpke+prtsrsutqjghtxnabeikie--ko+++++++++++++++++++++++++++++++++++++++++++.....-l+++++++++++++++++++++++++++++++++++++++++++++++++++++++++++++++++
(PID.TID 0000.0001) //      8 c-l++++++++++++++++++++......o++++f+++f+++++++++++++++++++++++nggiigfhmpf.k+yrssstsnjnswvrddfgc--...ek+++++++++++++++++++++++++++++++++piffkk+++.....f++++++++++++++++++++++++++++++++++++++++++++++++++++++++++++++++++
(PID.TID 0000.0001) //      7 c++++++++++++++++++++++a.....s++++l+++l+++++++++++++++++++++++nggiigfhouf.-++-ststmhmuxwvshghb..-...ek++++++++++++++++++++++++++++++++skiffifm+++dekk+++++++++++++++++++++++++++++++++++++++++++++++++++++++++++++++++++
(PID.TID 0000.0001) //      6 +++++++++++++++++++++++l....a+++++++++++++++++++++++++++++++++nhhiiggjtxd..++.lwwulhouvwwqihe-..-bfafe+++++++++++++++++++++++++++++++nmjlnlifm++++++++++++++++++++++++++++++++++++++++++++++++++++++++++++++++++++++++++
(PID.TID 0000.0001) //      5 ++++++++++++++++++++++++....++++++++++++++++++++++++++++++++++oijlnmnqtqd.....l+ztlioorul-......--jgce+++k+++k++++++++++++++++++-+++jgljottuqp++++++++++++++++++++++++++++++++++++++++++++++++++++++++++++++++++++++++++
(PID.TID 0000.0001) //      4 ++++++++++++++++++++++++kkk+++++++++++++++++++++++++++++++++++qmosuuttrneb....myvtoojhhh-........-jgak+++kk++kk++++++++++++++++-.++xjglpsutpru++++++++++++++++++++++++++++++++++++++++++++++++++++++++++++++++++++++++++
(PID.TID 0000.0001) //      3 +++++++++++++++++++++++++++++++++++++++++++++++++++++++++++++++++++++vrnii....tvttrqjgc-..........hj-k++++k+++k++++++++++++++++-.++xtpptvwqnp+++++++++++++++++++++++++++++++++++++++++++++++++++++++++++++++++++++++++++
(PID.TID 0000.0001) //      2 ++++++++++++++++++++++++++++++++++++++++++++++++++++++++++++++++++++++sppg...k+pquspec-...........ej-+++++k+++k++++++++++++++++-++++somotvqnp+++++++++++++++++++++++++++++++++++++++++++++++++++++++++++l+++++++++++++++
(PID.TID 0000.0001) //      1 ++++++++++++++++++++++++++++++++++++++++++++++++++++++++++++++++++++++++-.....kaaro-..............elkkl++kk++kk+++++++++++++++rl++xtpmhhjqtrs+++++++++++++++++++++++++++++++++++++++++++++++++++++++++++k+++++++mpu++++s
(PID.TID 0000.0001) //      0 +++++++++++++++++++++++++++++++++++++++++++++++++++++++++++++++++++++++p.g.......db...............k++kl++kkk++k+++++++++++++++r+++xtnkhfgntv+++++++++++++++++++++++++++++++++++++++++++++++++++++++++++ok++++++kfpurps++
(PID.TID 0000.0001) //     -1 +++++++++++++++++++++++++++++++++++++++++++++++++++++++++++++++++++++++pip-......................ar++++++++++++++++++++++++++++++++tkkhfgmt++++++++++++++++++++++++++++++++++++++++++++++++++++++++++++o+++++++kfqvpnrv+
(PID.TID 0000.0001) // =======================================================
(PID.TID 0000.0001) // END OF FIELD                                          =
(PID.TID 0000.0001) // =======================================================
(PID.TID 0000.0001) 
(PID.TID 0000.0001) GAD_INIT_FIXED: GAD_OlMinSize=  2  0  1
(PID.TID 0000.0001) 
(PID.TID 0000.0001) // ===================================
(PID.TID 0000.0001) // GAD parameters :
(PID.TID 0000.0001) // ===================================
(PID.TID 0000.0001) tempAdvScheme =   /* Temp. Horiz.Advection scheme selector */
(PID.TID 0000.0001)                       2
(PID.TID 0000.0001)     ;
(PID.TID 0000.0001) tempVertAdvScheme =   /* Temp. Vert. Advection scheme selector */
(PID.TID 0000.0001)                       2
(PID.TID 0000.0001)     ;
(PID.TID 0000.0001) tempMultiDimAdvec =   /* use Muti-Dim Advec method for Temp */
(PID.TID 0000.0001)                   F
(PID.TID 0000.0001)     ;
(PID.TID 0000.0001) tempSOM_Advection = /* use 2nd Order Moment Advection for Temp */
(PID.TID 0000.0001)                   F
(PID.TID 0000.0001)     ;
(PID.TID 0000.0001) AdamsBashforthGt = /* apply Adams-Bashforth extrapolation on Gt */
(PID.TID 0000.0001)                   T
(PID.TID 0000.0001)     ;
(PID.TID 0000.0001) AdamsBashforth_T = /* apply Adams-Bashforth extrapolation on Temp */
(PID.TID 0000.0001)                   F
(PID.TID 0000.0001)     ;
(PID.TID 0000.0001) saltAdvScheme =   /* Salt. Horiz.advection scheme selector */
(PID.TID 0000.0001)                       3
(PID.TID 0000.0001)     ;
(PID.TID 0000.0001) saltVertAdvScheme =   /* Salt. Vert. Advection scheme selector */
(PID.TID 0000.0001)                       3
(PID.TID 0000.0001)     ;
(PID.TID 0000.0001) saltMultiDimAdvec =   /* use Muti-Dim Advec method for Salt */
(PID.TID 0000.0001)                   F
(PID.TID 0000.0001)     ;
(PID.TID 0000.0001) saltSOM_Advection = /* use 2nd Order Moment Advection for Salt */
(PID.TID 0000.0001)                   F
(PID.TID 0000.0001)     ;
(PID.TID 0000.0001) AdamsBashforthGs = /* apply Adams-Bashforth extrapolation on Gs */
(PID.TID 0000.0001)                   T
(PID.TID 0000.0001)     ;
(PID.TID 0000.0001) AdamsBashforth_S = /* apply Adams-Bashforth extrapolation on Salt */
(PID.TID 0000.0001)                   F
(PID.TID 0000.0001)     ;
(PID.TID 0000.0001) // ===================================
- INPHYS: k,SIG, SIGH,   SIGL,   WVI(1),  WVI(2):
  1   0.0750   0.1500  -2.5903   0.8306   0.5757
  2   0.2500   0.3500  -1.3863   1.4427   0.4854
  3   0.5000   0.6500  -0.6931   2.2818   0.5987
  4   0.7750   0.9000  -0.2549   4.9116   0.7344
  5   0.9500   1.0000  -0.0513   0.0000   0.0377
- INPHYS: end setup WVI.
(PID.TID 0000.0001)  AIM_READ_PHYSPARMS: opening data.aimphys
(PID.TID 0000.0001)  OPEN_COPY_DATA_FILE: opening file data.aimphys
(PID.TID 0000.0001) // =======================================================
(PID.TID 0000.0001) // Parameter file "data.aimphys"
(PID.TID 0000.0001) // =======================================================
(PID.TID 0000.0001) ># AIM physics package parameters:
(PID.TID 0000.0001) >
(PID.TID 0000.0001) >C--   AIM interface parameter (namelist AIM_PARAMS):
(PID.TID 0000.0001) >#     aim_useFMsurfBC :: select surface B.C. from Franco Molteni
(PID.TID 0000.0001) >#     aim_useMMsurfFc :: select Monthly Mean surface forcing (e.g., NCEP)
(PID.TID 0000.0001) >#     aim_surfPotTemp :: surf.Temp input file is in Pot.Temp (aim_useMMsurfFc)
(PID.TID 0000.0001) >#     aim_energPrecip :: account for energy of precipitation (snow & rain temp)
(PID.TID 0000.0001) >#     aim_splitSIOsFx :: compute separately Sea-Ice & Ocean surf. Flux
(PID.TID 0000.0001) >#     aim_LandFile :: file name for Land fraction [0-1]
(PID.TID 0000.0001) >#     aim_MMsufx   :: sufix for all Monthly Mean surface forcing files
(PID.TID 0000.0001) >#     aim_MMsufxLength :: Length of sufix (Monthly Mean surf. forc. files)
(PID.TID 0000.0001) >#     aim_albFile  :: file name for Albedo input file   (F.M. surfBC)
(PID.TID 0000.0001) >#     aim_vegFile  :: file name for vegetation fraction (F.M. surfBC)
(PID.TID 0000.0001) >#     aim_sstFile  :: file name for  Sea.Surf.Temp      (F.M. surfBC)
(PID.TID 0000.0001) >#     aim_lstFile  :: file name for Land.Surf.Temp      (F.M. surfBC)
(PID.TID 0000.0001) >#     aim_oiceFile :: file name for Sea Ice fraction    (F.M. surfBC)
(PID.TID 0000.0001) >#     aim_snowFile :: file name for Snow depth          (F.M. surfBC)
(PID.TID 0000.0001) >#     aim_swcFile  :: file name for Soil Water content  (F.M. surfBC)
(PID.TID 0000.0001) >#     aim_dragStrato :: stratospheric-drag damping time scale (s)
(PID.TID 0000.0001) >#     aim_clrSkyDiag :: compute clear-sky radiation for diagnostics
(PID.TID 0000.0001) >#     aim_taveFreq :: Frequency^-1 for time-average output (s)
(PID.TID 0000.0001) >#     aim_diagFreq :: Frequency^-1 for diagnostic output (s)
(PID.TID 0000.0001) >#     aim_tendFreq :: Frequency^-1 for tendencies output (s)
(PID.TID 0000.0001) > &AIM_PARAMS
(PID.TID 0000.0001) >#  aim_useFMsurfBC=.FALSE.,
(PID.TID 0000.0001) >#  aim_useMMsurfFc=.TRUE.,
(PID.TID 0000.0001) >#  aim_surfPotTemp=.TRUE.,
(PID.TID 0000.0001) >   aim_energPrecip=.TRUE.,
(PID.TID 0000.0001) >   aim_splitSIOsFx=.TRUE.,
(PID.TID 0000.0001) >   aim_LandFile= 'landFrc.cpl_FM.bin',
(PID.TID 0000.0001) >   aim_albFile = 'albedo_cs32.bin',
(PID.TID 0000.0001) >   aim_vegFile = 'vegetFrc.cpl_FM.bin',
(PID.TID 0000.0001) >   aim_sstFile = 'seaSurfT.cpl_FM.bin',
(PID.TID 0000.0001) >   aim_lstFile = 'lndSurfT.cpl_FM.bin',
(PID.TID 0000.0001) >   aim_oiceFile= 'seaIce.cpl3FM.bin',
(PID.TID 0000.0001) >   aim_snowFile= 'snowDepth.cpl_FM.bin',
(PID.TID 0000.0001) >   aim_swcFile = 'soilMoist.cpl_FM.bin',
(PID.TID 0000.0001) >   aim_dragStrato= 2592000.,
(PID.TID 0000.0001) >#  aim_clrSkyDiag=.TRUE.,
(PID.TID 0000.0001) >#  aim_diagFreq=3600.,
(PID.TID 0000.0001) > /
(PID.TID 0000.0001) >
(PID.TID 0000.0001) >#--   Physical constants
(PID.TID 0000.0001) >#       P0    = reference pressure                 [Pa=N/m2]
(PID.TID 0000.0001) >#       GG    = gravity accel.                     [m/s2]
(PID.TID 0000.0001) >#       RD    = gas constant for dry air           [J/kg/K]
(PID.TID 0000.0001) >#       CP    = specific heat at constant pressure [J/kg/K]
(PID.TID 0000.0001) >#       ALHC  = latent heat of condensation        [J/g]
(PID.TID 0000.0001) >#       ALHF  = latent heat of freezing            [J/g]
(PID.TID 0000.0001) >#       SBC   = Stefan-Boltzmann constant
(PID.TID 0000.0001) >#     rainCP  = heat capacity of liquid water      [J/g/K]
(PID.TID 0000.0001) >#     tFreeze = freezing temperature of pure water [K]
(PID.TID 0000.0001) >
(PID.TID 0000.0001) >#--   Constants for forcing fields (namelist AIM_PAR_FOR):
(PID.TID 0000.0001) >#      SOLC   = Solar constant (area averaged) in W/m^2
(PID.TID 0000.0001) >#      ALBSEA = Albedo over sea
(PID.TID 0000.0001) >#      ALBICE = Albedo over sea ice (for ice fraction = 1)
(PID.TID 0000.0001) >#      ALBSN  = Albedo over snow (for snow depth > SDALB)
(PID.TID 0000.0001) >#      SDALB  = Snow depth (mm water) corresponding to maximum albedo
(PID.TID 0000.0001) >#      SWCAP  = Soil wetness at field capacity (volume fraction)
(PID.TID 0000.0001) >#      SWWIL  = Soil wetness at wilting point  (volume fraction)
(PID.TID 0000.0001) >#      hSnowWetness :: snow depth (m) corresponding to maximum wetness
(PID.TID 0000.0001) > &AIM_PAR_FOR
(PID.TID 0000.0001) > /
(PID.TID 0000.0001) >
(PID.TID 0000.0001) >#--   Constants for surface fluxes (namelist AIM_PAR_SFL):
(PID.TID 0000.0001) >#      FWIND0 = ratio of near-sfc wind to lowest-level wind
(PID.TID 0000.0001) >#      FTEMP0 = weight for near-sfc temperature extrapolation (0-1) :
(PID.TID 0000.0001) >#               1 : linear extrapolation from two lowest levels
(PID.TID 0000.0001) >#               0 : constant potential temperature ( = lowest level)
(PID.TID 0000.0001) >#      FHUM0  = weight for near-sfc specific humidity extrapolation (0-1) :
(PID.TID 0000.0001) >#               1 : extrap. with constant relative hum. ( = lowest level)
(PID.TID 0000.0001) >#               0 : constant specific hum. ( = lowest level)
(PID.TID 0000.0001) >#      CDL    = drag coefficient for momentum over land
(PID.TID 0000.0001) >#      CDS    = drag coefficient for momentum over sea
(PID.TID 0000.0001) >#      CHL    = heat exchange coefficient over land
(PID.TID 0000.0001) >#      CHS    = heat exchange coefficient over sea
(PID.TID 0000.0001) >#      VGUST  = wind speed for sub-grid-scale gusts
(PID.TID 0000.0001) >#      CTDAY  = daily-cycle correction (dTskin/dSSRad)
(PID.TID 0000.0001) >#      DTHETA = Potential temp. gradient for stability correction
(PID.TID 0000.0001) >#      dTstab = potential temp. increment for stability function derivative
(PID.TID 0000.0001) >#      FSTAB  = Amplitude of stability correction (fraction)
(PID.TID 0000.0001) >#      HDRAG  = Height scale for orographic correction
(PID.TID 0000.0001) >#      FHDRAG = Amplitude of orographic correction (fraction)
(PID.TID 0000.0001) > &AIM_PAR_SFL
(PID.TID 0000.0001) >#  FTEMP0 = 0.,
(PID.TID 0000.0001) >#  FHUM0  = 0.,
(PID.TID 0000.0001) >#  dTstab = 0.,
(PID.TID 0000.0001) > /
(PID.TID 0000.0001) >
(PID.TID 0000.0001) >#--   Convection constants (namelist AIM_PAR_CNV):
(PID.TID 0000.0001) >#      PSMIN  = minimum (norm.) sfc. pressure for the occurrence of convection
(PID.TID 0000.0001) >#      TRCNV  = time of relaxation (in hours) towards reference state
(PID.TID 0000.0001) >#      QBL    = specific hum. threshold in the boundary layer
(PID.TID 0000.0001) >#      RHBL   = relative hum. threshold in the boundary layer
(PID.TID 0000.0001) >#      RHIL   = rel. hum. threshold in intermed. layers for secondary mass flux
(PID.TID 0000.0001) >#      ENTMAX = max. entrainment as a fraction of cloud-base mass flux
(PID.TID 0000.0001) >#      SMF    = ratio between secondary and primary mass flux at cloud-base
(PID.TID 0000.0001) > &AIM_PAR_CNV
(PID.TID 0000.0001) > /
(PID.TID 0000.0001) >
(PID.TID 0000.0001) >#--   Constants for large-scale condensation (namelist AIM_PAR_LSC):
(PID.TID 0000.0001) >#      TRLSC  = Relaxation time (in hours) for specific humidity
(PID.TID 0000.0001) >#      RHLSC  = Maximum relative humidity threshold (at sigma=1)
(PID.TID 0000.0001) >#      DRHLSC = Vertical range of relative humidity threshold
(PID.TID 0000.0001) >#      QSMAX  = used to define the maximum latent heat release
(PID.TID 0000.0001) > &AIM_PAR_LSC
(PID.TID 0000.0001) > /
(PID.TID 0000.0001) >
(PID.TID 0000.0001) >#--   Radiation constants (namelist AIM_PAR_RAD):
(PID.TID 0000.0001) >#      RHCL1  = relative hum. corresponding to cloud cover = 0
(PID.TID 0000.0001) >#      RHCL2  = relative hum. corresponding to cloud cover = 1
(PID.TID 0000.0001) >#      QACL1  = specific hum. threshold for cloud cover in the upper troposphere
(PID.TID 0000.0001) >#      QACL2  = specific hum. threshold for cloud cover in the upper troposphere
(PID.TID 0000.0001) >#      ALBCL  = cloud albedo (for cloud cover = 1)
(PID.TID 0000.0001) >#      EPSSW  = fraction of incoming solar radiation absorbed by ozone
(PID.TID 0000.0001) >#      EPSLW  = fraction of surface LW radiation emitted directly to space
(PID.TID 0000.0001) >#      EMISFC = longwave surface emissivity
(PID.TID 0000.0001) >#--:            shortwave absorptivities (for dp = 10^5 Pa) :
(PID.TID 0000.0001) >#      ABSDRY = abs. of dry air      (visible band)
(PID.TID 0000.0001) >#      ABSAER = abs. of aerosols     (visible band)
(PID.TID 0000.0001) >#      ABSWV1 = abs. of water vapour (visible band, for dq = 1 g/kg)
(PID.TID 0000.0001) >#      ABSWV2 = abs. of water vapour (near IR band, for dq = 1 g/kg)
(PID.TID 0000.0001) >#      ABSCL1 = abs. of clouds       (visible band, constant term)
(PID.TID 0000.0001) >#      ABSCL2 = abs. of clouds       (visible band, for dw = 1 g/kg)
(PID.TID 0000.0001) >#--:            longwave absorptivities (per dp = 10^5 Pa) :
(PID.TID 0000.0001) >#      ABLWIN = abs. of air in "window" band
(PID.TID 0000.0001) >#      ABLCO2 = abs. of air in CO2 band
(PID.TID 0000.0001) >#      ABLWV1 = abs. of water vapour in H2O band 1 (weak),   for dq = 1 g/kg
(PID.TID 0000.0001) >#      ABLWV2 = abs. of water vapour in H2O band 2 (strong), for dq = 1 g/kg
(PID.TID 0000.0001) >#      ABLCL1 = abs. of clouds       in "window" band,       constant term
(PID.TID 0000.0001) >#      ABLCL2 = abs. of clouds       in "window" band,       for dw = 1 g/kg
(PID.TID 0000.0001) > &AIM_PAR_RAD
(PID.TID 0000.0001) > /
(PID.TID 0000.0001) >
(PID.TID 0000.0001) >#--   Constants for vertical dif. and sh. conv. (namelist AIM_PAR_VDI):
(PID.TID 0000.0001) >#      TRSHC  = relaxation time (in hours) for shallow convection
(PID.TID 0000.0001) >#      TRVDI  = relaxation time (in hours) for moisture diffusion
(PID.TID 0000.0001) >#      TRVDS  = relaxation time (in hours) for super-adiab. conditions
(PID.TID 0000.0001) >#      RHGRAD = maximum gradient of relative humidity (d_RH/d_sigma)
(PID.TID 0000.0001) >#      SEGRAD = minimum gradient of dry static energy (d_DSE/d_phi)
(PID.TID 0000.0001) > &AIM_PAR_VDI
(PID.TID 0000.0001) > /
(PID.TID 0000.0001) >
(PID.TID 0000.0001) 
(PID.TID 0000.0001)  AIM_READ_PHYSPARMS: finished reading data.aimphys
(PID.TID 0000.0001) 
(PID.TID 0000.0001) // ===================================
(PID.TID 0000.0001) // AIM physics parameters :
(PID.TID 0000.0001) // ===================================
(PID.TID 0000.0001) useLand =   /* use Land package for surf.BC over land  */
(PID.TID 0000.0001)                   T
(PID.TID 0000.0001)     ;
(PID.TID 0000.0001) aim_useFMsurfBC =   /* F.Molteni surf. BC scheme on/off flag */
(PID.TID 0000.0001)                   T
(PID.TID 0000.0001)     ;
(PID.TID 0000.0001) aim_useMMsurfFc =   /* Monthly Mean surf. Forcing on/off flag */
(PID.TID 0000.0001)                   F
(PID.TID 0000.0001)     ;
(PID.TID 0000.0001) aim_surfForc_TimePeriod = /* Length of forcing time period (s) */
(PID.TID 0000.0001)                 2.592000000000000E+06
(PID.TID 0000.0001)     ;
(PID.TID 0000.0001) aim_surfForc_NppCycle   = /* Number of time period per Cycle */
(PID.TID 0000.0001)                      12
(PID.TID 0000.0001)     ;
(PID.TID 0000.0001) aim_surfForc_TransRatio = /* transition ratio from one month to the next */
(PID.TID 0000.0001)                 1.000000000000000E+00
(PID.TID 0000.0001)     ;
(PID.TID 0000.0001) aim_surfPotTemp =   /* Surf Temp file in Pot.Temp on/off flag */
(PID.TID 0000.0001)                   F
(PID.TID 0000.0001)     ;
(PID.TID 0000.0001) aim_energPrecip = /* account for energy of precip. on/off flag */
(PID.TID 0000.0001)                   T
(PID.TID 0000.0001)     ;
(PID.TID 0000.0001) aim_splitSIOsFx = /* separate Sea-Ice & Ocean Flux on/off flag */
(PID.TID 0000.0001)                   T
(PID.TID 0000.0001)     ;
(PID.TID 0000.0001) aim_dragStrato= /* stratospheric-drag damping time scale (s) */
(PID.TID 0000.0001)                 2.592000000000000E+06
(PID.TID 0000.0001)     ;
(PID.TID 0000.0001) aim_clrSkyDiag = /* do clear-sky radiation diagnostics */
(PID.TID 0000.0001)                   F
(PID.TID 0000.0001)     ;
(PID.TID 0000.0001) aim_taveFreq =   /* Frequency^-1 for time-Aver. output (s) */
(PID.TID 0000.0001)                 2.592000000000000E+06
(PID.TID 0000.0001)     ;
(PID.TID 0000.0001) aim_diagFreq =   /* Frequency^-1 for diagnostic output (s) */
(PID.TID 0000.0001)                 2.592000000000000E+06
(PID.TID 0000.0001)     ;
(PID.TID 0000.0001) aim_tendFreq =   /* Frequency^-1 for tendencies output (s) */
(PID.TID 0000.0001)                 0.000000000000000E+00
(PID.TID 0000.0001)     ;
(PID.TID 0000.0001) aim_selectOceAlbedo =   /* Ocean albedo(latitude) flag */
(PID.TID 0000.0001)                       0
(PID.TID 0000.0001)     ;
(PID.TID 0000.0001) AIM_FOR:   SOLC =   /* Solar constant (area averaged) in W/m2 */
(PID.TID 0000.0001)                 3.420000000000000E+02
(PID.TID 0000.0001)     ;
(PID.TID 0000.0001) AIM_FOR:  OBLIQ =   /* Obliquity (degree) used with ALLOW_INSOLATION */
(PID.TID 0000.0001)                 2.345000000000000E+01
(PID.TID 0000.0001)     ;
(PID.TID 0000.0001) AIM_FOR: ALBSEA =   /* Albedo over sea [0-1]      */
(PID.TID 0000.0001)                 7.000000000000001E-02
(PID.TID 0000.0001)     ;
(PID.TID 0000.0001) AIM_FOR: ALBICE =   /* Albedo over sea ice (for ice fraction =1) */
(PID.TID 0000.0001)                 6.000000000000000E-01
(PID.TID 0000.0001)     ;
(PID.TID 0000.0001) AIM_FOR:  ALBSN =   /* Albedo over snow (for snow depth > SDALB) */
(PID.TID 0000.0001)                 6.000000000000000E-01
(PID.TID 0000.0001)     ;
(PID.TID 0000.0001) AIM_FOR:  SDALB =   /* Snow depth (mm H2O) corresp. maximum albedo */
(PID.TID 0000.0001)                 6.000000000000000E+01
(PID.TID 0000.0001)     ;
(PID.TID 0000.0001) AIM_FOR:  SWCAP =   /* Soil wetness at field capacity (Vol.fract.) */
(PID.TID 0000.0001)                 3.000000000000000E-01
(PID.TID 0000.0001)     ;
(PID.TID 0000.0001) AIM_FOR:  SWWIL =   /* Soil wetness at wilting point  (Vol.fract.) */
(PID.TID 0000.0001)                 1.700000000000000E-01
(PID.TID 0000.0001)     ;
(PID.TID 0000.0001) AIM_FOR: hSnowWetness=   /* snow depth corresp. maximum wetness (m) */
(PID.TID 0000.0001)                 1.000000000000000E-02
(PID.TID 0000.0001)     ;
(PID.TID 0000.0001) AIM_SFL: FWIND0 =   /* ratio of near-sfc wind to lowest-level wind */
(PID.TID 0000.0001)                 6.000000000000000E-01
(PID.TID 0000.0001)     ;
(PID.TID 0000.0001) AIM_SFL: FTEMP0 =  /* weight for near-sfc temp. extrapolation (0-1)*/
(PID.TID 0000.0001)                 1.000000000000000E+00
(PID.TID 0000.0001)     ;
(PID.TID 0000.0001) AIM_SFL:  FHUM0 =  /* weight for near-sfc spec.humid. extrap. (0-1)*/
(PID.TID 0000.0001)                 1.000000000000000E+00
(PID.TID 0000.0001)     ;
(PID.TID 0000.0001) AIM_SFL:    CDL =   /* drag coefficient for momentum over land */
(PID.TID 0000.0001)                 1.800000000000000E-03
(PID.TID 0000.0001)     ;
(PID.TID 0000.0001) AIM_SFL:    CDS =   /* drag coefficient for momentum over sea  */
(PID.TID 0000.0001)                 8.000000000000000E-04
(PID.TID 0000.0001)     ;
(PID.TID 0000.0001) AIM_SFL:    CHL =   /* heat exchange coefficient over land */
(PID.TID 0000.0001)                 1.200000000000000E-03
(PID.TID 0000.0001)     ;
(PID.TID 0000.0001) AIM_SFL:    CHS =   /* heat exchange coefficient over sea  */
(PID.TID 0000.0001)                 8.000000000000000E-04
(PID.TID 0000.0001)     ;
(PID.TID 0000.0001) AIM_SFL:  VGUST =   /* wind speed [m/s] for sub-grid-scale gusts */
(PID.TID 0000.0001)                 5.000000000000000E+00
(PID.TID 0000.0001)     ;
(PID.TID 0000.0001) AIM_SFL:  CTDAY =   /* daily-cycle correction (dTskin/dSSRad) */
(PID.TID 0000.0001)                 1.000000000000000E-02
(PID.TID 0000.0001)     ;
(PID.TID 0000.0001) AIM_SFL: DTHETA =   /* Pot.Temp. gradient for stability correction */
(PID.TID 0000.0001)                 3.000000000000000E+00
(PID.TID 0000.0001)     ;
(PID.TID 0000.0001) AIM_SFL: dTstab =   /* Pot.Temp. increment for stab.funct. derivative */
(PID.TID 0000.0001)                 1.000000000000000E+00
(PID.TID 0000.0001)     ;
(PID.TID 0000.0001) AIM_SFL:  FSTAB =   /* Amplitude of stability correction (fract.) */
(PID.TID 0000.0001)                 6.700000000000000E-01
(PID.TID 0000.0001)     ;
(PID.TID 0000.0001) AIM_SFL:  HDRAG =   /* Height scale for orographic correction */
(PID.TID 0000.0001)                 2.000000000000000E+03
(PID.TID 0000.0001)     ;
(PID.TID 0000.0001) AIM_SFL: FHDRAG =   /* Amplitude of orographic correction (fract.)*/
(PID.TID 0000.0001)                 8.000000000000000E-01
(PID.TID 0000.0001)     ;
(PID.TID 0000.0001) AIM_CNV:  PSMIN =   /* min norm.sfc.P. for occurrence of convect. */
(PID.TID 0000.0001)                 7.000000000000000E-01
(PID.TID 0000.0001)     ;
(PID.TID 0000.0001) AIM_CNV:  TRCNV =   /* time of relaxation [h] towards ref state */
(PID.TID 0000.0001)                 6.000000000000000E+00
(PID.TID 0000.0001)     ;
(PID.TID 0000.0001) AIM_CNV:    QBL =   /* specific hum. threshold in the Bound.layer */
(PID.TID 0000.0001)                 1.500000000000000E+01
(PID.TID 0000.0001)     ;
(PID.TID 0000.0001) AIM_CNV:   RHBL =   /* relative hum. threshold in the Bound.layer */
(PID.TID 0000.0001)                 8.000000000000000E-01
(PID.TID 0000.0001)     ;
(PID.TID 0000.0001) AIM_CNV:   RHIL =   /* rel.hum. threshold (intern) for 2nd mass.Flx*/
(PID.TID 0000.0001)                 7.000000000000000E-01
(PID.TID 0000.0001)     ;
(PID.TID 0000.0001) AIM_CNV: ENTMAX =   /* time of relaxation [h] towards neutral eq. */
(PID.TID 0000.0001)                 5.000000000000000E-01
(PID.TID 0000.0001)     ;
(PID.TID 0000.0001) AIM_CNV:    SMF =   /* ratio 2ndary/primary mass.Flx at cloud-base*/
(PID.TID 0000.0001)                 5.000000000000000E-01
(PID.TID 0000.0001)     ;
(PID.TID 0000.0001) AIM_LSC:  TRLSC =   /* relaxation time [h] for supersat. spec.hum. */
(PID.TID 0000.0001)                 4.000000000000000E+00
(PID.TID 0000.0001)     ;
(PID.TID 0000.0001) AIM_LSC:  RHLSC =   /* Max rel.humidity threshold (at sigma=1) */
(PID.TID 0000.0001)                 9.000000000000000E-01
(PID.TID 0000.0001)     ;
(PID.TID 0000.0001) AIM_LSC: DRHLSC =   /* Vertical range of rel.humidity threshold */
(PID.TID 0000.0001)                 1.000000000000000E-01
(PID.TID 0000.0001)     ;
(PID.TID 0000.0001) AIM_LSC:  QSMAX =   /* Define the maximum latent heat release */
(PID.TID 0000.0001)                 5.000000000000000E+01
(PID.TID 0000.0001)     ;
(PID.TID 0000.0001) AIM_RAD:  RHCL1 =   /*  rel.hum. corresponding to cloud cover = 0 */
(PID.TID 0000.0001)                 4.500000000000000E-01
(PID.TID 0000.0001)     ;
(PID.TID 0000.0001) AIM_RAD:  RHCL2 =   /*  rel.hum. corresponding to cloud cover = 1 */
(PID.TID 0000.0001)                 8.500000000000000E-01
(PID.TID 0000.0001)     ;
(PID.TID 0000.0001) AIM_RAD:  QACL1 =   /* spec.hum. threshold for cloud, upper trop. */
(PID.TID 0000.0001)                 1.000000000000000E-01
(PID.TID 0000.0001)     ;
(PID.TID 0000.0001) AIM_RAD:  QACL2 =   /* spec.hum. threshold for cloud, upper trop. */
(PID.TID 0000.0001)                 1.000000000000000E+00
(PID.TID 0000.0001)     ;
(PID.TID 0000.0001) AIM_RAD:  ALBCL =   /*  cloud albedo (for cloud cover = 1) */
(PID.TID 0000.0001)                 4.000000000000000E-01
(PID.TID 0000.0001)     ;
(PID.TID 0000.0001) AIM_RAD:  EPSSW =   /*  fract. of inc.solar rad. absorbed by ozone */
(PID.TID 0000.0001)                 1.500000000000000E-02
(PID.TID 0000.0001)     ;
(PID.TID 0000.0001) AIM_RAD:  EPSLW =   /*  fract. of sfc LW emitted directly to space */
(PID.TID 0000.0001)                 0.000000000000000E+00
(PID.TID 0000.0001)     ;
(PID.TID 0000.0001) AIM_RAD: EMISFC =   /*  longwave surface emissivity */
(PID.TID 0000.0001)                 9.800000000000000E-01
(PID.TID 0000.0001)     ;
(PID.TID 0000.0001)  AIM_RAD : ShortWave absorptivities (for dp = 10^5 Pa) :
(PID.TID 0000.0001) AIM_RAD: ABSDRY =   /* abs. of dry air (visible band) */
(PID.TID 0000.0001)                 3.300000000000000E-02
(PID.TID 0000.0001)     ;
(PID.TID 0000.0001) AIM_RAD: ABSAER =   /* abs. of aerosols (visible band) */
(PID.TID 0000.0001)                 3.300000000000000E-02
(PID.TID 0000.0001)     ;
(PID.TID 0000.0001) AIM_RAD: ABSWV1 =   /* abs. of water vap. (vis. band)(/dq, 1g/kg) */
(PID.TID 0000.0001)                 2.200000000000000E-02
(PID.TID 0000.0001)     ;
(PID.TID 0000.0001) AIM_RAD: ABSWV2 =   /* abs. of water vap.(near IR bd)(/dq, 1g/kg) */
(PID.TID 0000.0001)                 1.500000000000000E+01
(PID.TID 0000.0001)     ;
(PID.TID 0000.0001) AIM_RAD: ABSCL1 =   /* abs. of clouds (vis.band)(constant term) */
(PID.TID 0000.0001)                 0.000000000000000E+00
(PID.TID 0000.0001)     ;
(PID.TID 0000.0001) AIM_RAD: ABSCL2 =   /* abs. of clouds (vis.band) (/dw, 1g/kg) */
(PID.TID 0000.0001)                 1.000000000000000E-02
(PID.TID 0000.0001)     ;
(PID.TID 0000.0001) AIM_RAD: ABLWIN =   /* abs. of air in "window" band */
(PID.TID 0000.0001)                 7.000000000000000E-01
(PID.TID 0000.0001)     ;
(PID.TID 0000.0001) AIM_RAD: ABLCO2 =   /* abs. of air in CO2 band */
(PID.TID 0000.0001)                 4.000000000000000E+00
(PID.TID 0000.0001)     ;
(PID.TID 0000.0001) AIM_RAD: ABLWV1 =   /* abs. of Water vap. H2O bd-1(weak)(/dq,1g/kg)*/
(PID.TID 0000.0001)                 7.000000000000000E-01
(PID.TID 0000.0001)     ;
(PID.TID 0000.0001) AIM_RAD: ABLWV2 =   /* abs. of W. vap., H2O bd-2(strong)(/dq,1g/kg)*/
(PID.TID 0000.0001)                 5.000000000000000E+01
(PID.TID 0000.0001)     ;
(PID.TID 0000.0001) AIM_RAD: ABLCL1 =   /* abs. of clouds in window band (const term) */
(PID.TID 0000.0001)                 1.200000000000000E+01
(PID.TID 0000.0001)     ;
(PID.TID 0000.0001) AIM_RAD: ABLCL2 =   /* abs. of clouds in window band (/dw, 1g/kg) */
(PID.TID 0000.0001)                 0.000000000000000E+00
(PID.TID 0000.0001)     ;
(PID.TID 0000.0001) AIM_VDI:  TRSHC =   /* relaxation time [h] for shallow convection */
(PID.TID 0000.0001)                 2.400000000000000E+01
(PID.TID 0000.0001)     ;
(PID.TID 0000.0001) AIM_VDI:  TRVDI =   /* relaxation time [h] for moisture diffusion */
(PID.TID 0000.0001)                 4.000000000000000E+01
(PID.TID 0000.0001)     ;
(PID.TID 0000.0001) AIM_VDI:  TRVDS =   /* relaxation time [h] for super-adiab. cond. */
(PID.TID 0000.0001)                 5.000000000000000E+00
(PID.TID 0000.0001)     ;
(PID.TID 0000.0001) AIM_VDI: RHGRAD =   /* max gradient of rel.humidity (d_RH/d_sigma)*/
(PID.TID 0000.0001)                 5.000000000000000E-01
(PID.TID 0000.0001)     ;
(PID.TID 0000.0001) AIM_VDI: SEGRAD =   /* max grad. of dry static Energy(d_DSE/d_phi)*/
(PID.TID 0000.0001)                 1.000000000000000E-01
(PID.TID 0000.0001)     ;
(PID.TID 0000.0001)  MDS_READ_FIELD: opening global file: landFrc.cpl_FM.bin
(PID.TID 0000.0001)  LAND_READPARMS: opening data.land
(PID.TID 0000.0001)  OPEN_COPY_DATA_FILE: opening file data.land
(PID.TID 0000.0001) // =======================================================
(PID.TID 0000.0001) // Parameter file "data.land"
(PID.TID 0000.0001) // =======================================================
(PID.TID 0000.0001) ># Land package parameters:
(PID.TID 0000.0001) >
(PID.TID 0000.0001) >#--  Land model parameter (namelist LAND_MODEL_PAR):
(PID.TID 0000.0001) >#     land_calc_grT  :: step forward ground Temperature
(PID.TID 0000.0001) >#     land_calc_grW  :: step forward soil moiture
(PID.TID 0000.0001) >#     land_impl_grT  :: solve ground Temperature implicitly
(PID.TID 0000.0001) >#     land_calc_snow :: step forward snow thickness
(PID.TID 0000.0001) >#     land_calc_alb  :: compute albedo of snow over land
(PID.TID 0000.0001) >#     land_oldPickup :: restart from an old pickup (=before checkpoint 52l)
(PID.TID 0000.0001) >#     land_grT_iniFile  :: File containing initial ground Temp.
(PID.TID 0000.0001) >#     land_grW_iniFile  :: File containing initial ground Water.
(PID.TID 0000.0001) >#     land_snow_iniFile :: File containing initial snow thickness.
(PID.TID 0000.0001) >#     land_deltaT   :: land model time-step
(PID.TID 0000.0001) >#     land_taveFreq :: Frequency^-1 for time-Aver. output (s)
(PID.TID 0000.0001) >#     land_diagFreq :: Frequency^-1 for diagnostic output (s)
(PID.TID 0000.0001) >#     land_monFreq  :: Frequency^-1 for monitor    output (s)
(PID.TID 0000.0001) >#     land_dzF      :: layer thickness
(PID.TID 0000.0001) > &LAND_MODEL_PAR
(PID.TID 0000.0001) ># land_calc_grT =.FALSE.,
(PID.TID 0000.0001) ># land_calc_grW =.FALSE.,
(PID.TID 0000.0001) ># land_impl_grT =.FALSE.,
(PID.TID 0000.0001) ># land_calc_snow=.FALSE.,
(PID.TID 0000.0001) ># land_calc_alb =.FALSE.,
(PID.TID 0000.0001) >  land_grT_iniFile='land_grT_ini.cpl.bin',
(PID.TID 0000.0001) >  land_grW_iniFile='land_grW_ini.mn.bin',
(PID.TID 0000.0001) >  land_snow_iniFile='land_snw_ini.cpl.bin',
(PID.TID 0000.0001) ># land_oldPickup=.TRUE.,
(PID.TID 0000.0001) >  land_dzF= 0.1, 4.0,
(PID.TID 0000.0001) ># land_diagFreq=2592000.,
(PID.TID 0000.0001) > /
(PID.TID 0000.0001) >
(PID.TID 0000.0001) >#--  Physical constants (namelist LAND_PHYS_PAR):
(PID.TID 0000.0001) >#     land_grdLambda  :: Thermal conductivity of the ground (W/m/K)
(PID.TID 0000.0001) >#     land_heatCs     :: Heat capacity of dry soil (J/m3/K)
(PID.TID 0000.0001) >#     land_CpWater    :: Heat capacity of water    (J/kg/K)
(PID.TID 0000.0001) >#     land_wTauDiff   :: soil moisture diffusion time scale
(PID.TID 0000.0001) >#     land_waterCap   :: field capacity per meter of soil
(PID.TID 0000.0001) >#     land_fractRunOff:: fraction of water in excess which run-off
(PID.TID 0000.0001) >#     land_rhoLiqW    :: density of liquid water (kg/m3)
(PID.TID 0000.0001) >#     land_rhoSnow    :: density of snow (kg/m3)
(PID.TID 0000.0001) >#     land_Lfreez     :: Latent heat of freezing (J/kg)
(PID.TID 0000.0001) >#     land_hMaxSnow   :: Maximum snow-thickness  (m)
(PID.TID 0000.0001) >#     diffKsnow       :: thermal conductivity of snow (W/m/K)
(PID.TID 0000.0001) >#     timeSnowAge     :: snow aging time scale   (s)
(PID.TID 0000.0001) >#     hNewSnowAge     :: new snow thickness that refresh the snow-age (by 1/e)
(PID.TID 0000.0001) >#     albColdSnow     :: albedo of cold (=dry) new snow (Tsfc < -10)
(PID.TID 0000.0001) >#     albWarmSnow     :: albedo of warm (=wet) new snow (Tsfc = 0)
(PID.TID 0000.0001) >#     albOldSnow      :: albedo of old snow (snowAge > 35.d)
(PID.TID 0000.0001) >#     hAlbSnow        :: snow thickness for albedo transition: snow/ground
(PID.TID 0000.0001) > &LAND_PHYS_PAR
(PID.TID 0000.0001) ># land_Lfreez=0.,
(PID.TID 0000.0001) >  land_hMaxSnow=10.,
(PID.TID 0000.0001) > /
(PID.TID 0000.0001) 
(PID.TID 0000.0001)  LAND_READPARMS: finished reading data.land
(PID.TID 0000.0001) 
(PID.TID 0000.0001) // ===================================
(PID.TID 0000.0001) // Land package parameters :
(PID.TID 0000.0001) // ===================================
(PID.TID 0000.0001) land_calc_grT = /* step forward ground Temp. on/off flag */
(PID.TID 0000.0001)                   T
(PID.TID 0000.0001)     ;
(PID.TID 0000.0001) land_calc_grW = /* step forward soil moiture on/off flag */
(PID.TID 0000.0001)                   T
(PID.TID 0000.0001)     ;
(PID.TID 0000.0001) land_impl_grT = /* solve ground temperature implicitly */
(PID.TID 0000.0001)                   T
(PID.TID 0000.0001)     ;
(PID.TID 0000.0001) land_calc_snow = /* step forward snow thickness */
(PID.TID 0000.0001)                   T
(PID.TID 0000.0001)     ;
(PID.TID 0000.0001) land_calc_alb = /* compute land+snow albedo */
(PID.TID 0000.0001)                   T
(PID.TID 0000.0001)     ;
(PID.TID 0000.0001) land_grT_iniFile = /* Initial ground-Temp Input-File */
(PID.TID 0000.0001)                 land_grT_ini.cpl.bin
(PID.TID 0000.0001)     ;
(PID.TID 0000.0001) land_grW_iniFile = /* Initial soil-Water Input-File */
(PID.TID 0000.0001)                 land_grW_ini.mn.bin
(PID.TID 0000.0001)     ;
(PID.TID 0000.0001) land_snow_iniFile= /* Initial snow thickness Input-File */
(PID.TID 0000.0001)                 land_grW_ini.mn.bin
(PID.TID 0000.0001)     ;
(PID.TID 0000.0001) land_deltaT = /* land model Time-Step (s) */
(PID.TID 0000.0001)                 4.500000000000000E+02
(PID.TID 0000.0001)     ;
(PID.TID 0000.0001) land_taveFreq = /* Frequency^-1 for time-Aver. output (s) */
(PID.TID 0000.0001)                 2.592000000000000E+06
(PID.TID 0000.0001)     ;
(PID.TID 0000.0001) land_diagFreq = /* Frequency^-1 for diagnostic output (s) */
(PID.TID 0000.0001)                 2.592000000000000E+06
(PID.TID 0000.0001)     ;
(PID.TID 0000.0001) land_monFreq = /* Frequency^-1 for monitor output (s) */
(PID.TID 0000.0001)                 2.592000000000000E+06
(PID.TID 0000.0001)     ;
(PID.TID 0000.0001) land_dzF = /* layer thickness ( m ) */
(PID.TID 0000.0001)                 1.000000000000000E-01,      /* K =  1 */
(PID.TID 0000.0001)                 4.000000000000000E+00       /* K =  2 */
(PID.TID 0000.0001)     ;
(PID.TID 0000.0001) land_rec_dzC= /* recip. vertical spacing (m-1) */
(PID.TID 0000.0001)                 2.000000000000000E+01,      /* K =  1 */
(PID.TID 0000.0001)                 4.878048780487805E-01       /* K =  2 */
(PID.TID 0000.0001)     ;
(PID.TID 0000.0001) land_timeave_mdsio = /* use MDSIO for Tave output */
(PID.TID 0000.0001)                   T
(PID.TID 0000.0001)     ;
(PID.TID 0000.0001) land_timeave_mnc = /* use MNC for Tave output */
(PID.TID 0000.0001)                   F
(PID.TID 0000.0001)     ;
(PID.TID 0000.0001) land_snapshot_mdsio = /* use MDSIO for snapshot output */
(PID.TID 0000.0001)                   T
(PID.TID 0000.0001)     ;
(PID.TID 0000.0001) land_snapshot_mnc = /* use MNC for snapshot output */
(PID.TID 0000.0001)                   F
(PID.TID 0000.0001)     ;
(PID.TID 0000.0001) land_mon_stdio = /* use STDOUT for monitor output */
(PID.TID 0000.0001)                   T
(PID.TID 0000.0001)     ;
(PID.TID 0000.0001) land_mon_mnc = /* use MNC for monitor output */
(PID.TID 0000.0001)                   F
(PID.TID 0000.0001)     ;
(PID.TID 0000.0001) land_pickup_write_mnc = /* use MNC for writing pickups */
(PID.TID 0000.0001)                   F
(PID.TID 0000.0001)     ;
(PID.TID 0000.0001) land_pickup_read_mnc = /* use MNC for reading pickups */
(PID.TID 0000.0001)                   F
(PID.TID 0000.0001)     ;
(PID.TID 0000.0001) land_grdLambda = /* Thermal conductivity of the ground (W/m/K)*/
(PID.TID 0000.0001)                 4.200000000000000E-01
(PID.TID 0000.0001)     ;
(PID.TID 0000.0001) land_heatCs = /* Heat capacity of dry soil (J/m3/K) */
(PID.TID 0000.0001)                 1.130000000000000E+06
(PID.TID 0000.0001)     ;
(PID.TID 0000.0001) land_CpWater = /* Heat capacity of water    (J/kg/K) */
(PID.TID 0000.0001)                 4.200000000000000E+03
(PID.TID 0000.0001)     ;
(PID.TID 0000.0001) land_wTauDiff = /* soil moisture diffusion time scale (s) */
(PID.TID 0000.0001)                 1.728000000000000E+05
(PID.TID 0000.0001)     ;
(PID.TID 0000.0001) land_waterCap = /* field capacity per meter of soil (1) */
(PID.TID 0000.0001)                 2.400000000000000E-01
(PID.TID 0000.0001)     ;
(PID.TID 0000.0001) land_fractRunOff= /* fraction of water in excess which run-off */
(PID.TID 0000.0001)                 5.000000000000000E-01
(PID.TID 0000.0001)     ;
(PID.TID 0000.0001) land_rhoLiqW = /* density of liquid water (kg/m3) */
(PID.TID 0000.0001)                 1.000000000000000E+03
(PID.TID 0000.0001)     ;
(PID.TID 0000.0001) land_rhoSnow = /* density of snow (kg/m3) */
(PID.TID 0000.0001)                 3.300000000000000E+02
(PID.TID 0000.0001)     ;
(PID.TID 0000.0001) land_Lfreez = /* Latent heat of freezing (J/kg) */
(PID.TID 0000.0001)                 3.340000000000000E+05
(PID.TID 0000.0001)     ;
(PID.TID 0000.0001) land_hMaxSnow = /* maximum snow-thickness (m) */
(PID.TID 0000.0001)                 1.000000000000000E+01
(PID.TID 0000.0001)     ;
(PID.TID 0000.0001) diffKsnow = /* thermal conductivity of snow (W/m/K) */
(PID.TID 0000.0001)                 3.000000000000000E-01
(PID.TID 0000.0001)     ;
(PID.TID 0000.0001) timeSnowAge = /* snow aging time scale   (s) */
(PID.TID 0000.0001)                 4.320000000000000E+06
(PID.TID 0000.0001)     ;
(PID.TID 0000.0001) hNewSnowAge = /* new snow thickness to refresh snow-age by 1/e */
(PID.TID 0000.0001)                 2.000000000000000E-03
(PID.TID 0000.0001)     ;
(PID.TID 0000.0001) albColdSnow = /* albedo of cold (=dry) new snow */
(PID.TID 0000.0001)                 8.500000000000000E-01
(PID.TID 0000.0001)     ;
(PID.TID 0000.0001) albWarmSnow = /* albedo of warm (=wet) new snow */
(PID.TID 0000.0001)                 7.000000000000000E-01
(PID.TID 0000.0001)     ;
(PID.TID 0000.0001) tempSnowAlbL = /* Temp. transition from ColdSnow to WarmSnow Alb. (oC) */
(PID.TID 0000.0001)                -1.000000000000000E+01
(PID.TID 0000.0001)     ;
(PID.TID 0000.0001) albOldSnow = /* albedo of old snow (snowAge >35.d)*/
(PID.TID 0000.0001)                 5.500000000000000E-01
(PID.TID 0000.0001)     ;
(PID.TID 0000.0001) hAlbSnow = /* snow depth for albedo transition */
(PID.TID 0000.0001)                 3.000000000000000E-01
(PID.TID 0000.0001)     ;
(PID.TID 0000.0001) ------------------------------------------------------------
(PID.TID 0000.0001) DIAGNOSTICS_SET_LEVELS: done
(PID.TID 0000.0001)  Total Nb of available Diagnostics: ndiagt=   262
(PID.TID 0000.0001)  write list of available Diagnostics to file: available_diagnostics.log
(PID.TID 0000.0001) SETDIAG: Allocate  1 x  1 Levels for Diagnostic #    23 ETAN
(PID.TID 0000.0001) SETDIAG: Allocate  1 x  1 Levels for Diagnostic #    24 ETANSQ
(PID.TID 0000.0001) SETDIAG: Allocate  1 x  1 Levels for Diagnostic #    25 DETADT2
(PID.TID 0000.0001) SETDIAG: Allocate  5 x  1 Levels for Diagnostic #    29 UVEL
(PID.TID 0000.0001) SETDIAG: Allocate  5 x  1 Levels for Diagnostic #    30 VVEL
(PID.TID 0000.0001) SETDIAG: Allocate  5 x  1 Levels for Diagnostic #    31 WVEL
(PID.TID 0000.0001) SETDIAG: Allocate  5 x  1 Levels for Diagnostic #    26 THETA
(PID.TID 0000.0001) SETDIAG: Allocate  5 x  1 Levels for Diagnostic #    27 SALT
(PID.TID 0000.0001) SETDIAG: Allocate  5 x  1 Levels for Diagnostic #    34 UVELSQ
(PID.TID 0000.0001) SETDIAG: Allocate  5 x  1 Levels for Diagnostic #    35 VVELSQ
(PID.TID 0000.0001) SETDIAG: Allocate  5 x  1 Levels for Diagnostic #    36 WVELSQ
(PID.TID 0000.0001) SETDIAG: Allocate  5 x  1 Levels for Diagnostic #    32 THETASQ
(PID.TID 0000.0001) SETDIAG: Allocate  5 x  1 Levels for Diagnostic #    40 UV_VEL_Z
(PID.TID 0000.0001) SETDIAG: Allocate  5 x  1 Levels for Diagnostic #    69 PHIHYD
(PID.TID 0000.0001) SETDIAG: Allocate  5 x  1 Levels for Diagnostic #    70 PHIHYDSQ
(PID.TID 0000.0001) SETDIAG: Allocate  5 x  1 Levels for Diagnostic #    43 UVELMASS
(PID.TID 0000.0001) SETDIAG: Allocate  5 x  1 Levels for Diagnostic #    44 VVELMASS
(PID.TID 0000.0001) SETDIAG: Allocate  5 x  1 Levels for Diagnostic #    48 UTHMASS
(PID.TID 0000.0001) SETDIAG: Allocate  5 x  1 Levels for Diagnostic #    49 VTHMASS
(PID.TID 0000.0001) SETDIAG: Allocate  5 x  1 Levels for Diagnostic #    56 WVELTH
(PID.TID 0000.0001) SETDIAG: Allocate  5 x  1 Levels for Diagnostic #    51 USLTMASS
(PID.TID 0000.0001) SETDIAG: Allocate  5 x  1 Levels for Diagnostic #    52 VSLTMASS
(PID.TID 0000.0001) SETDIAG: Allocate  5 x  1 Levels for Diagnostic #    59 WVELSLT
(PID.TID 0000.0001) SETDIAG: Allocate  1 x  1 Levels for Diagnostic #   212 UFLUX
(PID.TID 0000.0001) SETDIAG: Allocate  1 x  1 Levels for Diagnostic #   213 VFLUX
(PID.TID 0000.0001) SETDIAG: Allocate  1 x  1 Levels for Diagnostic #   186 TSR
(PID.TID 0000.0001) SETDIAG: Allocate  1 x  1 Levels for Diagnostic #   187 OLR
(PID.TID 0000.0001) SETDIAG: Allocate  1 x  1 Levels for Diagnostic #   188 RADSWG
(PID.TID 0000.0001) SETDIAG: Allocate  1 x  1 Levels for Diagnostic #   189 RADLWG
(PID.TID 0000.0001) SETDIAG: Allocate  1 x  1 Levels for Diagnostic #   190 HFLUX
(PID.TID 0000.0001) SETDIAG: Allocate  1 x  1 Levels for Diagnostic #   191 EVAP
(PID.TID 0000.0001) SETDIAG: Allocate  1 x  1 Levels for Diagnostic #   192 PRECON
(PID.TID 0000.0001) SETDIAG: Allocate  1 x  1 Levels for Diagnostic #   193 PRECLS
(PID.TID 0000.0001) SETDIAG: Allocate  1 x  1 Levels for Diagnostic #   194 CLDFRC
(PID.TID 0000.0001) SETDIAG: Allocate  1 x  1 Levels for Diagnostic #   195 CLDPRS
(PID.TID 0000.0001) - NOTE - SETDIAG: Counter-mate #   194 CLDFRC   is already set
(PID.TID 0000.0001) SETDIAG: Allocate  1 x  1 Levels for Diagnostic #   196 CLDMAS
(PID.TID 0000.0001) SETDIAG: Allocate  1 x  1 Levels for Diagnostic #   197 DRAG
(PID.TID 0000.0001) SETDIAG: Allocate  1 x  1 Levels for Diagnostic #   198 WINDS
(PID.TID 0000.0001) SETDIAG: Allocate  1 x  1 Levels for Diagnostic #   199 TS
(PID.TID 0000.0001) SETDIAG: Allocate  1 x  1 Levels for Diagnostic #   200 QS
(PID.TID 0000.0001) SETDIAG: Allocate  1 x  1 Levels for Diagnostic #   201 ENPREC
(PID.TID 0000.0001) SETDIAG: Allocate  1 x  1 Levels for Diagnostic #   202 ALBVISDF
(PID.TID 0000.0001) SETDIAG: Allocate  1 x  1 Levels for Diagnostic #   216 DTSIMPL
(PID.TID 0000.0001) SETDIAG: Allocate  5 x  1 Levels for Diagnostic #    28 RELHUM
(PID.TID 0000.0001) SETDIAG: Allocate  5 x  1 Levels for Diagnostic #   176 DIABT
(PID.TID 0000.0001) SETDIAG: Allocate  5 x  1 Levels for Diagnostic #   177 DIABQ
(PID.TID 0000.0001) SETDIAG: Allocate  5 x  1 Levels for Diagnostic #   178 RADSW
(PID.TID 0000.0001) SETDIAG: Allocate  5 x  1 Levels for Diagnostic #   179 RADLW
(PID.TID 0000.0001) SETDIAG: Allocate  5 x  1 Levels for Diagnostic #   180 DTCONV
(PID.TID 0000.0001) SETDIAG: Allocate  5 x  1 Levels for Diagnostic #   182 DTLS
(PID.TID 0000.0001) SETDIAG: Allocate  5 x  1 Levels for Diagnostic #   183 DQCONV
(PID.TID 0000.0001) SETDIAG: Allocate  5 x  1 Levels for Diagnostic #   185 DQLS
(PID.TID 0000.0001) SETDIAG: Allocate  1 x  1 Levels for Diagnostic #   229 SI_Fract
(PID.TID 0000.0001) SETDIAG: Allocate  1 x  1 Levels for Diagnostic #   230 SI_Thick
(PID.TID 0000.0001) - NOTE - SETDIAG: Counter-mate #   229 SI_Fract is already set
(PID.TID 0000.0001) SETDIAG: Allocate  1 x  1 Levels for Diagnostic #   231 SI_SnowH
(PID.TID 0000.0001) - NOTE - SETDIAG: Counter-mate #   229 SI_Fract is already set
(PID.TID 0000.0001) SETDIAG: Allocate  1 x  1 Levels for Diagnostic #   232 SI_Tsrf
(PID.TID 0000.0001) - NOTE - SETDIAG: Counter-mate #   229 SI_Fract is already set
(PID.TID 0000.0001) SETDIAG: Allocate  1 x  1 Levels for Diagnostic #   233 SI_Tice1
(PID.TID 0000.0001) - NOTE - SETDIAG: Counter-mate #   229 SI_Fract is already set
(PID.TID 0000.0001) SETDIAG: Allocate  1 x  1 Levels for Diagnostic #   234 SI_Tice2
(PID.TID 0000.0001) - NOTE - SETDIAG: Counter-mate #   229 SI_Fract is already set
(PID.TID 0000.0001) SETDIAG: Allocate  1 x  1 Levels for Diagnostic #   235 SI_Qice1
(PID.TID 0000.0001) - NOTE - SETDIAG: Counter-mate #   230 SI_Thick is already set
(PID.TID 0000.0001) SETDIAG: Allocate  1 x  1 Levels for Diagnostic #   236 SI_Qice2
(PID.TID 0000.0001) - NOTE - SETDIAG: Counter-mate #   230 SI_Thick is already set
(PID.TID 0000.0001) SETDIAG: Allocate  1 x  1 Levels for Diagnostic #   237 SIsnwAge
(PID.TID 0000.0001) SETDIAG: Allocate  1 x  1 Levels for Diagnostic #   240 SIsnwPrc
(PID.TID 0000.0001) SETDIAG: Allocate  1 x  1 Levels for Mate Diag. #   238 SI_FrcFx
(PID.TID 0000.0001) SETDIAG: Allocate  1 x  1 Levels for Diagnostic #   239 SIalbedo
(PID.TID 0000.0001) - NOTE - SETDIAG: Counter-mate #   238 SI_FrcFx is already set
(PID.TID 0000.0001) SETDIAG: Allocate  1 x  1 Levels for Diagnostic #   243 SIflx2oc
(PID.TID 0000.0001) SETDIAG: Allocate  1 x  1 Levels for Diagnostic #   244 SIfrw2oc
(PID.TID 0000.0001) SETDIAG: Allocate  1 x  1 Levels for Diagnostic #   245 SIsaltFx
(PID.TID 0000.0001)   space allocated for all diagnostics:     183 levels
(PID.TID 0000.0001)   set mate pointer for diag #    29  UVEL     , Parms: UUR     MR , mate:    30
(PID.TID 0000.0001)   set mate pointer for diag #    30  VVEL     , Parms: VVR     MR , mate:    29
(PID.TID 0000.0001)   set mate pointer for diag #    34  UVELSQ   , Parms: UURP    MR , mate:    35
(PID.TID 0000.0001)   set mate pointer for diag #    35  VVELSQ   , Parms: VVRP    MR , mate:    34
(PID.TID 0000.0001)   set mate pointer for diag #    40  UV_VEL_Z , Parms: UZR     MR , mate:    40
(PID.TID 0000.0001)   set mate pointer for diag #    43  UVELMASS , Parms: UUr     MR , mate:    44
(PID.TID 0000.0001)   set mate pointer for diag #    44  VVELMASS , Parms: VVr     MR , mate:    43
(PID.TID 0000.0001)   set mate pointer for diag #    48  UTHMASS  , Parms: UUr     MR , mate:    49
(PID.TID 0000.0001)   set mate pointer for diag #    49  VTHMASS  , Parms: VVr     MR , mate:    48
(PID.TID 0000.0001)   set mate pointer for diag #    51  USLTMASS , Parms: UUr     MR , mate:    52
(PID.TID 0000.0001)   set mate pointer for diag #    52  VSLTMASS , Parms: VVr     MR , mate:    51
(PID.TID 0000.0001)   set mate pointer for diag #   212  UFLUX    , Parms: UU      L1 , mate:   213
(PID.TID 0000.0001)   set mate pointer for diag #   213  VFLUX    , Parms: VV      L1 , mate:   212
(PID.TID 0000.0001) DIAGNOSTICS_SET_POINTERS: Set levels for Outp.Stream: aimDiag
(PID.TID 0000.0001)  Levels:       1.
(PID.TID 0000.0001) DIAGNOSTICS_SET_POINTERS: Set levels for Outp.Stream: aimDDT
(PID.TID 0000.0001)  Levels:       1.   2.   3.   4.   5.
(PID.TID 0000.0001) DIAGNOSTICS_SET_POINTERS: Set levels for Outp.Stream: thSIceDiag
(PID.TID 0000.0001)  Levels:       1.
(PID.TID 0000.0001) DIAGNOSTICS_SET_POINTERS: done
(PID.TID 0000.0001) ------------------------------------------------------------
 DIAGSTATS_SET_REGIONS: start reading region-mask file: regMask_lat24.bin
 DIAGSTATS_SET_REGIONS:  reading set k=  1
(PID.TID 0000.0001)  MDS_READ_FIELD: opening global file: regMask_lat24.bin
 DIAGSTATS_SET_REGIONS:          set k=  1 <= done
(PID.TID 0000.0001) DIAGSTATS_SET_REGIONS: define   3 regions:  1  2  3
(PID.TID 0000.0001) ------------------------------------------------------------
(PID.TID 0000.0001) SETDIAG: Allocate  1 Levels for Stats-Diag #    23 ETAN
(PID.TID 0000.0001) SETDIAG: Allocate  5 Levels for Stats-Diag #    29 UVEL
(PID.TID 0000.0001) SETDIAG: Allocate  5 Levels for Stats-Diag #    30 VVEL
(PID.TID 0000.0001) SETDIAG: Allocate  5 Levels for Stats-Diag #    31 WVEL
(PID.TID 0000.0001) SETDIAG: Allocate  5 Levels for Stats-Diag #    26 THETA
(PID.TID 0000.0001) SETDIAG: Allocate  1 Levels for Stats-Diag #   222 LdSnowH
(PID.TID 0000.0001) SETDIAG: Allocate  1 Levels for Stats-Diag #   218 GrdSurfT
(PID.TID 0000.0001) SETDIAG: Allocate  2 Levels for Stats-Diag #   219 GrdTemp
(PID.TID 0000.0001) SETDIAG: Allocate  2 Levels for Stats-Diag #   221 GrdWater
(PID.TID 0000.0001) SETDIAG: Allocate  1 Levels for Stats-Diag #   229 SI_Fract
(PID.TID 0000.0001) SETDIAG: Allocate  1 Levels for Stats-Diag #   230 SI_Thick
(PID.TID 0000.0001) - NOTE - SETDIAG: Counter Diagnostic #   229 SI_Fract has already been set
(PID.TID 0000.0001) SETDIAG: Allocate  1 Levels for Stats-Diag #   231 SI_SnowH
(PID.TID 0000.0001) - NOTE - SETDIAG: Counter Diagnostic #   229 SI_Fract has already been set
(PID.TID 0000.0001) SETDIAG: Allocate  1 Levels for Stats-Diag #   232 SI_Tsrf
(PID.TID 0000.0001) - NOTE - SETDIAG: Counter Diagnostic #   229 SI_Fract has already been set
(PID.TID 0000.0001) SETDIAG: Allocate  1 Levels for Stats-Diag #   233 SI_Tice1
(PID.TID 0000.0001) - NOTE - SETDIAG: Counter Diagnostic #   229 SI_Fract has already been set
(PID.TID 0000.0001) SETDIAG: Allocate  1 Levels for Stats-Diag #   234 SI_Tice2
(PID.TID 0000.0001) - NOTE - SETDIAG: Counter Diagnostic #   229 SI_Fract has already been set
(PID.TID 0000.0001) SETDIAG: Allocate  1 Levels for Stats-Diag #   240 SIsnwPrc
(PID.TID 0000.0001) SETDIAG: Allocate  1 Levels for Count.Diag #   238 SI_FrcFx
(PID.TID 0000.0001) SETDIAG: Allocate  1 Levels for Stats-Diag #   239 SIalbedo
(PID.TID 0000.0001) - NOTE - SETDIAG: Counter Diagnostic #   238 SI_FrcFx has already been set
(PID.TID 0000.0001) SETDIAG: Allocate  1 Levels for Stats-Diag #   237 SIsnwAge
(PID.TID 0000.0001) SETDIAG: Allocate  1 Levels for Stats-Diag #   243 SIflx2oc
(PID.TID 0000.0001) SETDIAG: Allocate  1 Levels for Stats-Diag #   244 SIfrw2oc
(PID.TID 0000.0001) SETDIAG: Allocate  1 Levels for Stats-Diag #   245 SIsaltFx
(PID.TID 0000.0001)   space allocated for all stats-diags:      40 levels
(PID.TID 0000.0001) DIAGSTATS_SET_POINTERS: done
(PID.TID 0000.0001) ------------------------------------------------------------
(PID.TID 0000.0001) DIAGSTATS_INI_IO: open file: dynStDiag.0000000000.txt , unit=     9
(PID.TID 0000.0001) DIAGSTATS_INI_IO: open file: landStDiag.0000000000.txt , unit=    10
(PID.TID 0000.0001) DIAGSTATS_INI_IO: open file: thSIceStDiag.0000000000.txt , unit=    16
(PID.TID 0000.0001) INI_GLOBAL_DOMAIN: Found  24 CS-corner Pts in the domain
(PID.TID 0000.0001) %MON fCori_max                    =   1.4574827780704E-04
(PID.TID 0000.0001) %MON fCori_min                    =  -1.4574827780704E-04
(PID.TID 0000.0001) %MON fCori_mean                   =   0.0000000000000E+00
(PID.TID 0000.0001) %MON fCori_sd                     =   8.4202189509968E-05
(PID.TID 0000.0001) %MON fCoriG_max                   =   1.4584247033981E-04
(PID.TID 0000.0001) %MON fCoriG_min                   =  -1.4584247033981E-04
(PID.TID 0000.0001) %MON fCoriG_mean                  =   2.2587545260115E-21
(PID.TID 0000.0001) %MON fCoriG_sd                    =   8.4202189509968E-05
(PID.TID 0000.0001) %MON fCoriCos_max                 =   1.4580166994612E-04
(PID.TID 0000.0001) %MON fCoriCos_min                 =   5.2407700865903E-06
(PID.TID 0000.0001) %MON fCoriCos_mean                =   1.1514045869113E-04
(PID.TID 0000.0001) %MON fCoriCos_sd                  =   3.0375849106513E-05
(PID.TID 0000.0001) INI_CG2D: CG2D normalisation factor =  9.9119603843467461E-06
(PID.TID 0000.0001) INI_CG2D: cg2dTolerance = 1.123144856357769E-10 (Area=5.0990436378E+14)
(PID.TID 0000.0001) 
(PID.TID 0000.0001) // =======================================================
(PID.TID 0000.0001) // Model configuration
(PID.TID 0000.0001) // =======================================================
(PID.TID 0000.0001) //
(PID.TID 0000.0001) // "Physical" paramters ( PARM01 in namelist )
(PID.TID 0000.0001) //
(PID.TID 0000.0001) buoyancyRelation = /* Type of relation to get Buoyancy */
(PID.TID 0000.0001)               'ATMOSPHERIC'
(PID.TID 0000.0001)     ;
(PID.TID 0000.0001) fluidIsAir   =  /* fluid major constituent is Air */
(PID.TID 0000.0001)                   T
(PID.TID 0000.0001)     ;
(PID.TID 0000.0001) fluidIsWater =  /* fluid major constituent is Water */
(PID.TID 0000.0001)                   F
(PID.TID 0000.0001)     ;
(PID.TID 0000.0001) usingPCoords =  /* use p (or p*) vertical coordinate */
(PID.TID 0000.0001)                   T
(PID.TID 0000.0001)     ;
(PID.TID 0000.0001) usingZCoords =  /* use z (or z*) vertical coordinate */
(PID.TID 0000.0001)                   F
(PID.TID 0000.0001)     ;
(PID.TID 0000.0001) tRef =   /* Reference temperature profile ( oC or K ) */
(PID.TID 0000.0001)                 2.896000000000000E+02,      /* K =  1 */
(PID.TID 0000.0001)                 2.981000000000000E+02,      /* K =  2 */
(PID.TID 0000.0001)                 3.145000000000000E+02,      /* K =  3 */
(PID.TID 0000.0001)                 3.358000000000000E+02,      /* K =  4 */
(PID.TID 0000.0001)                 4.374000000000000E+02       /* K =  5 */
(PID.TID 0000.0001)     ;
(PID.TID 0000.0001) sRef =   /* Reference salinity profile ( psu ) */
(PID.TID 0000.0001)     5 @  0.000000000000000E+00              /* K =  1:  5 */
(PID.TID 0000.0001)     ;
(PID.TID 0000.0001) viscAh  =   /* Lateral eddy viscosity ( m^2/s ) */
(PID.TID 0000.0001)                 0.000000000000000E+00
(PID.TID 0000.0001)     ;
(PID.TID 0000.0001) viscAhMax = /* Maximum lateral eddy viscosity ( m^2/s ) */
(PID.TID 0000.0001)                 1.000000000000000E+21
(PID.TID 0000.0001)     ;
(PID.TID 0000.0001) viscAhGrid = /* Grid dependent lateral eddy viscosity ( non-dim. ) */
(PID.TID 0000.0001)                 0.000000000000000E+00
(PID.TID 0000.0001)     ;
(PID.TID 0000.0001) useFullLeith = /* Use Full Form of Leith Viscosity on/off flag*/
(PID.TID 0000.0001)                   F
(PID.TID 0000.0001)     ;
(PID.TID 0000.0001) useStrainTensionVisc= /* Use StrainTension Form of Viscous Operator flag*/
(PID.TID 0000.0001)                   F
(PID.TID 0000.0001)     ;
(PID.TID 0000.0001) useAreaViscLength = /* Use area for visc length instead of geom. mean*/
(PID.TID 0000.0001)                   F
(PID.TID 0000.0001)     ;
(PID.TID 0000.0001) viscC2leith = /* Leith harmonic visc. factor (on grad(vort),non-dim.) */
(PID.TID 0000.0001)                 0.000000000000000E+00
(PID.TID 0000.0001)     ;
(PID.TID 0000.0001) viscC2leithD = /* Leith harmonic viscosity factor (on grad(div),non-dim.)*/
(PID.TID 0000.0001)                 0.000000000000000E+00
(PID.TID 0000.0001)     ;
(PID.TID 0000.0001) viscC2smag = /* Smagorinsky harmonic viscosity factor (non-dim.) */
(PID.TID 0000.0001)                 0.000000000000000E+00
(PID.TID 0000.0001)     ;
(PID.TID 0000.0001) viscA4  =   /* Lateral biharmonic viscosity ( m^4/s ) */
(PID.TID 0000.0001)                 0.000000000000000E+00
(PID.TID 0000.0001)     ;
(PID.TID 0000.0001) viscA4Max = /* Maximum biharmonic viscosity ( m^2/s ) */
(PID.TID 0000.0001)                 1.000000000000000E+21
(PID.TID 0000.0001)     ;
(PID.TID 0000.0001) viscA4Grid = /* Grid dependent biharmonic viscosity ( non-dim. ) */
(PID.TID 0000.0001)                 0.000000000000000E+00
(PID.TID 0000.0001)     ;
(PID.TID 0000.0001) viscC4leith = /* Leith biharm viscosity factor (on grad(vort), non-dim.)*/
(PID.TID 0000.0001)                 0.000000000000000E+00
(PID.TID 0000.0001)     ;
(PID.TID 0000.0001) viscC4leithD = /* Leith biharm viscosity factor (on grad(div), non-dim.) */
(PID.TID 0000.0001)                 0.000000000000000E+00
(PID.TID 0000.0001)     ;
(PID.TID 0000.0001) viscC4Smag = /* Smagorinsky biharm viscosity factor (non-dim) */
(PID.TID 0000.0001)                 0.000000000000000E+00
(PID.TID 0000.0001)     ;
(PID.TID 0000.0001) no_slip_sides =  /* Viscous BCs: No-slip sides */
(PID.TID 0000.0001)                   F
(PID.TID 0000.0001)     ;
(PID.TID 0000.0001) sideDragFactor = /* side-drag scaling factor (non-dim) */
(PID.TID 0000.0001)                 2.000000000000000E+00
(PID.TID 0000.0001)     ;
(PID.TID 0000.0001) viscArNr = /* vertical profile of vertical viscosity (Pa^2/s )*/
(PID.TID 0000.0001)     5 @  0.000000000000000E+00              /* K =  1:  5 */
(PID.TID 0000.0001)     ;
(PID.TID 0000.0001) no_slip_bottom =  /* Viscous BCs: No-slip bottom */
(PID.TID 0000.0001)                   F
(PID.TID 0000.0001)     ;
(PID.TID 0000.0001) bottomDragLinear = /* linear bottom-drag coefficient ( m/s ) */
(PID.TID 0000.0001)                 0.000000000000000E+00
(PID.TID 0000.0001)     ;
(PID.TID 0000.0001) bottomDragQuadratic = /* quadratic bottom-drag coefficient (-) */
(PID.TID 0000.0001)                 0.000000000000000E+00
(PID.TID 0000.0001)     ;
(PID.TID 0000.0001) diffKhT =   /* Laplacian diffusion of heat laterally ( m^2/s ) */
(PID.TID 0000.0001)                 0.000000000000000E+00
(PID.TID 0000.0001)     ;
(PID.TID 0000.0001) diffK4T =   /* Biharmonic diffusion of heat laterally ( m^4/s ) */
(PID.TID 0000.0001)                 0.000000000000000E+00
(PID.TID 0000.0001)     ;
(PID.TID 0000.0001) diffKhS =   /* Laplacian diffusion of salt laterally ( m^2/s ) */
(PID.TID 0000.0001)                 0.000000000000000E+00
(PID.TID 0000.0001)     ;
(PID.TID 0000.0001) diffK4S =   /* Biharmonic diffusion of salt laterally ( m^4/s ) */
(PID.TID 0000.0001)                 0.000000000000000E+00
(PID.TID 0000.0001)     ;
(PID.TID 0000.0001) diffKrNrT = /* vertical profile of vertical diffusion of Temp (Pa^2/s )*/
(PID.TID 0000.0001)     5 @  0.000000000000000E+00              /* K =  1:  5 */
(PID.TID 0000.0001)     ;
(PID.TID 0000.0001) diffKrNrS = /* vertical profile of vertical diffusion of Salt (Pa^2/s )*/
(PID.TID 0000.0001)     5 @  0.000000000000000E+00              /* K =  1:  5 */
(PID.TID 0000.0001)     ;
(PID.TID 0000.0001) diffKrBL79surf = /* Surface diffusion for Bryan and Lewis 79 ( m^2/s ) */
(PID.TID 0000.0001)                 0.000000000000000E+00
(PID.TID 0000.0001)     ;
(PID.TID 0000.0001) diffKrBL79deep = /* Deep diffusion for Bryan and Lewis 1979 ( m^2/s ) */
(PID.TID 0000.0001)                 0.000000000000000E+00
(PID.TID 0000.0001)     ;
(PID.TID 0000.0001) diffKrBL79scl = /* Depth scale for Bryan and Lewis 1979 ( m ) */
(PID.TID 0000.0001)                 2.000000000000000E+02
(PID.TID 0000.0001)     ;
(PID.TID 0000.0001) diffKrBL79Ho = /* Turning depth for Bryan and Lewis 1979 ( m ) */
(PID.TID 0000.0001)                -2.000000000000000E+03
(PID.TID 0000.0001)     ;
(PID.TID 0000.0001) ivdc_kappa = /* Implicit Vertical Diffusivity for Convection (Pa^2/s) */
(PID.TID 0000.0001)                 0.000000000000000E+00
(PID.TID 0000.0001)     ;
(PID.TID 0000.0001) hMixCriteria=  /* Criteria for mixed-layer diagnostic */
(PID.TID 0000.0001)                -8.000000000000000E-01
(PID.TID 0000.0001)     ;
(PID.TID 0000.0001) dRhoSmall =  /* Parameter for mixed-layer diagnostic */
(PID.TID 0000.0001)                 1.000000000000000E-06
(PID.TID 0000.0001)     ;
(PID.TID 0000.0001) hMixSmooth=  /* Smoothing parameter for mixed-layer diagnostic */
(PID.TID 0000.0001)                 0.000000000000000E+00
(PID.TID 0000.0001)     ;
(PID.TID 0000.0001) eosType =  /* Type of Equation of State */
(PID.TID 0000.0001)               'IDEALG'
(PID.TID 0000.0001)     ;
(PID.TID 0000.0001) celsius2K = /* 0 degree Celsius converted to Kelvin ( K ) */
(PID.TID 0000.0001)                 2.731500000000000E+02
(PID.TID 0000.0001)     ;
(PID.TID 0000.0001) atm_Rd =  /* gas constant for dry air ( J/kg/K ) */
(PID.TID 0000.0001)                 2.868571428571428E+02
(PID.TID 0000.0001)     ;
(PID.TID 0000.0001) atm_Cp =  /* specific heat (Cp) of dry air ( J/kg/K ) */
(PID.TID 0000.0001)                 1.004000000000000E+03
(PID.TID 0000.0001)     ;
(PID.TID 0000.0001) atm_kappa =  /* kappa (=Rd/Cp ) of dry air */
(PID.TID 0000.0001)                 2.857142857142857E-01
(PID.TID 0000.0001)     ;
(PID.TID 0000.0001) atm_Rq = /* water vap. specific vol. anomaly relative to dry air */
(PID.TID 0000.0001)                 6.078000000000000E-04
(PID.TID 0000.0001)     ;
(PID.TID 0000.0001) atm_Po =  /* standard reference pressure ( Pa ) */
(PID.TID 0000.0001)                 1.000000000000000E+05
(PID.TID 0000.0001)     ;
(PID.TID 0000.0001) integr_GeoPot =  /* select how the geopotential is integrated */
(PID.TID 0000.0001)                       2
(PID.TID 0000.0001)     ;
(PID.TID 0000.0001) selectFindRoSurf=  /* select how Surf.Ref. pressure is defined */
(PID.TID 0000.0001)                       1
(PID.TID 0000.0001)     ;
(PID.TID 0000.0001) rhoConst  = /* Reference density (Boussinesq)  ( kg/m^3 ) */
(PID.TID 0000.0001)                 9.998000000000000E+02
(PID.TID 0000.0001)     ;
(PID.TID 0000.0001) rhoFacC = /* normalized Reference density @ cell-Center (-) */
(PID.TID 0000.0001)     5 @  1.000000000000000E+00              /* K =  1:  5 */
(PID.TID 0000.0001)     ;
(PID.TID 0000.0001) rhoFacF = /* normalized Reference density @ W-Interface (-) */
(PID.TID 0000.0001)     6 @  1.000000000000000E+00              /* K =  1:  6 */
(PID.TID 0000.0001)     ;
(PID.TID 0000.0001) rhoConstFresh = /* Fresh-water reference density ( kg/m^3 ) */
(PID.TID 0000.0001)                 1.000000000000000E+03
(PID.TID 0000.0001)     ;
(PID.TID 0000.0001) gravity =   /* Gravitational acceleration ( m/s^2 ) */
(PID.TID 0000.0001)                 9.810000000000000E+00
(PID.TID 0000.0001)     ;
(PID.TID 0000.0001) gBaro =   /* Barotropic gravity ( m/s^2 ) */
(PID.TID 0000.0001)                 9.810000000000000E+00
(PID.TID 0000.0001)     ;
(PID.TID 0000.0001) rotationPeriod =   /* Rotation Period ( s ) */
(PID.TID 0000.0001)                 8.616400000000000E+04
(PID.TID 0000.0001)     ;
(PID.TID 0000.0001) omega =   /* Angular velocity ( rad/s ) */
(PID.TID 0000.0001)                 7.292123516990375E-05
(PID.TID 0000.0001)     ;
(PID.TID 0000.0001) f0 =   /* Reference coriolis parameter ( 1/s ) */
(PID.TID 0000.0001)                 1.000000000000000E-04
(PID.TID 0000.0001)     ;
(PID.TID 0000.0001) beta =   /* Beta ( 1/(m.s) ) */
(PID.TID 0000.0001)                 9.999999999999999E-12
(PID.TID 0000.0001)     ;
(PID.TID 0000.0001) fPrime =   /* Second coriolis parameter ( 1/s ) */
(PID.TID 0000.0001)                 0.000000000000000E+00
(PID.TID 0000.0001)     ;
(PID.TID 0000.0001) rigidLid =   /* Rigid lid on/off flag */
(PID.TID 0000.0001)                   F
(PID.TID 0000.0001)     ;
(PID.TID 0000.0001) implicitFreeSurface =   /* Implicit free surface on/off flag */
(PID.TID 0000.0001)                   T
(PID.TID 0000.0001)     ;
(PID.TID 0000.0001) freeSurfFac =   /* Implicit free surface factor */
(PID.TID 0000.0001)                 1.000000000000000E+00
(PID.TID 0000.0001)     ;
(PID.TID 0000.0001) implicSurfPress =  /* Surface Pressure implicit factor (0-1)*/
(PID.TID 0000.0001)                 1.000000000000000E+00
(PID.TID 0000.0001)     ;
(PID.TID 0000.0001) implicDiv2Dflow =  /* Barot. Flow Div. implicit factor (0-1)*/
(PID.TID 0000.0001)                 1.000000000000000E+00
(PID.TID 0000.0001)     ;
(PID.TID 0000.0001) uniformLin_PhiSurf = /* use uniform Bo_surf on/off flag*/
(PID.TID 0000.0001)                   F
(PID.TID 0000.0001)     ;
(PID.TID 0000.0001) uniformFreeSurfLev = /* free-surface level-index is uniform */
(PID.TID 0000.0001)                   F
(PID.TID 0000.0001)     ;
(PID.TID 0000.0001) hFacMin =   /* minimum partial cell factor (hFac) */
(PID.TID 0000.0001)                 2.000000000000000E-01
(PID.TID 0000.0001)     ;
(PID.TID 0000.0001) hFacMinDr = /* minimum partial cell thickness (Pa) */
(PID.TID 0000.0001)                 2.000000000000000E-01
(PID.TID 0000.0001)     ;
(PID.TID 0000.0001) exactConserv =  /* Exact Volume Conservation on/off flag*/
(PID.TID 0000.0001)                   T
(PID.TID 0000.0001)     ;
(PID.TID 0000.0001) linFSConserveTr = /* Tracer correction for Lin Free Surface on/off flag*/
(PID.TID 0000.0001)                   F
(PID.TID 0000.0001)     ;
(PID.TID 0000.0001) nonlinFreeSurf = /* Non-linear Free Surf. options (-1,0,1,2,3)*/
(PID.TID 0000.0001)                       4
(PID.TID 0000.0001)      -1,0= Off ; 1,2,3= On, 2=+rescale gU,gV, 3=+update cg2d solv.
(PID.TID 0000.0001)     ;
(PID.TID 0000.0001) hFacInf =   /* lower threshold for hFac (nonlinFreeSurf only)*/
(PID.TID 0000.0001)                 2.000000000000000E-01
(PID.TID 0000.0001)     ;
(PID.TID 0000.0001) hFacSup =   /* upper threshold for hFac (nonlinFreeSurf only)*/
(PID.TID 0000.0001)                 2.000000000000000E+00
(PID.TID 0000.0001)     ;
(PID.TID 0000.0001) select_rStar = /* r* Vertical coord. options (=0 r coord.; >0 uses r*)*/
(PID.TID 0000.0001)                       2
(PID.TID 0000.0001)     ;
(PID.TID 0000.0001) useRealFreshWaterFlux = /* Real Fresh Water Flux on/off flag*/
(PID.TID 0000.0001)                   F
(PID.TID 0000.0001)     ;
(PID.TID 0000.0001) temp_EvPrRn = /* Temp. of Evap/Prec/R (UNSET=use local T)(oC)*/
(PID.TID 0000.0001)                 1.234567000000000E+05
(PID.TID 0000.0001)     ;
(PID.TID 0000.0001) salt_EvPrRn = /* Salin. of Evap/Prec/R (UNSET=use local S)(psu)*/
(PID.TID 0000.0001)                 0.000000000000000E+00
(PID.TID 0000.0001)     ;
(PID.TID 0000.0001) selectAddFluid = /* option for mass source/sink of fluid (=0: off) */
(PID.TID 0000.0001)                       0
(PID.TID 0000.0001)     ;
(PID.TID 0000.0001) temp_addMass = /* Temp. of addMass array (UNSET=use local T)(oC)*/
(PID.TID 0000.0001)                 1.234567000000000E+05
(PID.TID 0000.0001)     ;
(PID.TID 0000.0001) salt_addMass = /* Salin. of addMass array (UNSET=use local S)(psu)*/
(PID.TID 0000.0001)                 0.000000000000000E+00
(PID.TID 0000.0001)     ;
(PID.TID 0000.0001) convertFW2Salt = /* convert F.W. Flux to Salt Flux (-1=use local S)(psu)*/
(PID.TID 0000.0001)                 3.500000000000000E+01
(PID.TID 0000.0001)     ;
(PID.TID 0000.0001) use3Dsolver = /* use 3-D pressure solver on/off flag */
(PID.TID 0000.0001)                   F
(PID.TID 0000.0001)     ;
(PID.TID 0000.0001) nonHydrostatic =  /* Non-Hydrostatic on/off flag */
(PID.TID 0000.0001)                   F
(PID.TID 0000.0001)     ;
(PID.TID 0000.0001) nh_Am2 = /* Non-Hydrostatic terms scaling factor */
(PID.TID 0000.0001)                 1.000000000000000E+00
(PID.TID 0000.0001)     ;
(PID.TID 0000.0001) implicitNHPress = /* Non-Hyd Pressure implicit factor (0-1)*/
(PID.TID 0000.0001)                 1.000000000000000E+00
(PID.TID 0000.0001)     ;
(PID.TID 0000.0001) selectNHfreeSurf = /* Non-Hyd (free-)Surface option */
(PID.TID 0000.0001)                       0
(PID.TID 0000.0001)     ;
(PID.TID 0000.0001) quasiHydrostatic = /* Quasi-Hydrostatic on/off flag */
(PID.TID 0000.0001)                   F
(PID.TID 0000.0001)     ;
(PID.TID 0000.0001) calc_wVelocity = /* vertical velocity calculation on/off flag */
(PID.TID 0000.0001)                   T
(PID.TID 0000.0001)     ;
(PID.TID 0000.0001) momStepping =  /* Momentum equation on/off flag */
(PID.TID 0000.0001)                   T
(PID.TID 0000.0001)     ;
(PID.TID 0000.0001) vectorInvariantMomentum= /* Vector-Invariant Momentum on/off */
(PID.TID 0000.0001)                   T
(PID.TID 0000.0001)     ;
(PID.TID 0000.0001) momAdvection =  /* Momentum advection on/off flag */
(PID.TID 0000.0001)                   T
(PID.TID 0000.0001)     ;
(PID.TID 0000.0001) momViscosity =  /* Momentum viscosity on/off flag */
(PID.TID 0000.0001)                   T
(PID.TID 0000.0001)     ;
(PID.TID 0000.0001) momImplVertAdv= /* Momentum implicit vert. advection on/off*/
(PID.TID 0000.0001)                   F
(PID.TID 0000.0001)     ;
(PID.TID 0000.0001) implicitViscosity = /* Implicit viscosity on/off flag */
(PID.TID 0000.0001)                   F
(PID.TID 0000.0001)     ;
(PID.TID 0000.0001) metricTerms =  /* metric-Terms on/off flag */
(PID.TID 0000.0001)                   F
(PID.TID 0000.0001)     ;
(PID.TID 0000.0001) useNHMTerms = /* Non-Hydrostatic Metric-Terms on/off */
(PID.TID 0000.0001)                   F
(PID.TID 0000.0001)     ;
(PID.TID 0000.0001) selectCoriMap = /* Coriolis Map options (0,1,2,3)*/
(PID.TID 0000.0001)                       2
(PID.TID 0000.0001)     0= f-Plane ; 1= Beta-Plane ; 2= Spherical ; 3= read from file
(PID.TID 0000.0001)     ;
(PID.TID 0000.0001) use3dCoriolis = /* 3-D Coriolis on/off flag */
(PID.TID 0000.0001)                   F
(PID.TID 0000.0001)     ;
(PID.TID 0000.0001) useCoriolis =  /* Coriolis on/off flag */
(PID.TID 0000.0001)                   T
(PID.TID 0000.0001)     ;
(PID.TID 0000.0001) useCDscheme =  /* CD scheme on/off flag */
(PID.TID 0000.0001)                   F
(PID.TID 0000.0001)     ;
(PID.TID 0000.0001) useEnergyConservingCoriolis= /* Flx-Form Coriolis scheme flag */
(PID.TID 0000.0001)                   F
(PID.TID 0000.0001)     ;
(PID.TID 0000.0001) useJamartWetPoints= /* Coriolis WetPoints method flag */
(PID.TID 0000.0001)                   T
(PID.TID 0000.0001)     ;
(PID.TID 0000.0001) useJamartMomAdv= /* V.I Non-linear terms Jamart flag */
(PID.TID 0000.0001)                   F
(PID.TID 0000.0001)     ;
(PID.TID 0000.0001) useAbsVorticity= /* V.I Works with f+zeta in Coriolis */
(PID.TID 0000.0001)                   F
(PID.TID 0000.0001)     ;
(PID.TID 0000.0001) selectVortScheme= /* V.I Scheme selector for Vorticity-Term */
(PID.TID 0000.0001)                       1
(PID.TID 0000.0001)    = 0 : enstrophy (Shallow-Water Eq.) conserving scheme by Sadourny, JAS 75
(PID.TID 0000.0001)    = 1 : same as 0 with modified hFac
(PID.TID 0000.0001)    = 2 : energy conserving scheme (used by Sadourny in JAS 75 paper)
(PID.TID 0000.0001)    = 3 : energy (general) and enstrophy (2D, nonDiv.) conserving scheme
(PID.TID 0000.0001)          from Sadourny (Burridge & Haseler, ECMWF Rep.4, 1977)
(PID.TID 0000.0001)     ;
(PID.TID 0000.0001) upwindVorticity= /* V.I Upwind bias vorticity flag */
(PID.TID 0000.0001)                   F
(PID.TID 0000.0001)     ;
(PID.TID 0000.0001) highOrderVorticity= /* V.I High order vort. advect. flag */
(PID.TID 0000.0001)                   F
(PID.TID 0000.0001)     ;
(PID.TID 0000.0001) upwindShear= /* V.I Upwind vertical Shear advection flag */
(PID.TID 0000.0001)                   F
(PID.TID 0000.0001)     ;
(PID.TID 0000.0001) selectKEscheme= /* V.I Kinetic Energy scheme selector */
(PID.TID 0000.0001)                       0
(PID.TID 0000.0001)     ;
(PID.TID 0000.0001) momForcing =  /* Momentum forcing on/off flag */
(PID.TID 0000.0001)                   T
(PID.TID 0000.0001)     ;
(PID.TID 0000.0001) momPressureForcing =  /* Momentum pressure term on/off flag */
(PID.TID 0000.0001)                   T
(PID.TID 0000.0001)     ;
(PID.TID 0000.0001) implicitIntGravWave= /* Implicit Internal Gravity Wave flag */
(PID.TID 0000.0001)                   F
(PID.TID 0000.0001)     ;
(PID.TID 0000.0001) staggerTimeStep =    /* Stagger time stepping on/off flag */
(PID.TID 0000.0001)                   T
(PID.TID 0000.0001)     ;
(PID.TID 0000.0001) doResetHFactors = /* reset thickness factors @ each time-step */
(PID.TID 0000.0001)                   F
(PID.TID 0000.0001)     ;
(PID.TID 0000.0001) multiDimAdvection =  /* enable/disable Multi-Dim Advection */
(PID.TID 0000.0001)                   T
(PID.TID 0000.0001)     ;
(PID.TID 0000.0001) useMultiDimAdvec =   /* Multi-Dim Advection is/is-not used */
(PID.TID 0000.0001)                   F
(PID.TID 0000.0001)     ;
(PID.TID 0000.0001) implicitDiffusion = /* Implicit Diffusion on/off flag */
(PID.TID 0000.0001)                   F
(PID.TID 0000.0001)     ;
(PID.TID 0000.0001) tempStepping =  /* Temperature equation on/off flag */
(PID.TID 0000.0001)                   T
(PID.TID 0000.0001)     ;
(PID.TID 0000.0001) tempAdvection = /* Temperature advection on/off flag */
(PID.TID 0000.0001)                   T
(PID.TID 0000.0001)     ;
(PID.TID 0000.0001) tempImplVertAdv = /* Temp. implicit vert. advection on/off */
(PID.TID 0000.0001)                   F
(PID.TID 0000.0001)     ;
(PID.TID 0000.0001) tempForcing  =  /* Temperature forcing on/off flag */
(PID.TID 0000.0001)                   T
(PID.TID 0000.0001)     ;
(PID.TID 0000.0001) addFrictionHeating= /* account for frictional heating */
(PID.TID 0000.0001)                   F
(PID.TID 0000.0001)     ;
(PID.TID 0000.0001) doThetaClimRelax = /* apply SST relaxation on/off flag */
(PID.TID 0000.0001)                   F
(PID.TID 0000.0001)     ;
(PID.TID 0000.0001) tempIsActiveTr = /* Temp. is a dynamically Active Tracer */
(PID.TID 0000.0001)                   T
(PID.TID 0000.0001)     ;
(PID.TID 0000.0001) saltStepping =  /* Salinity equation on/off flag */
(PID.TID 0000.0001)                   T
(PID.TID 0000.0001)     ;
(PID.TID 0000.0001) saltAdvection = /* Salinity advection on/off flag */
(PID.TID 0000.0001)                   T
(PID.TID 0000.0001)     ;
(PID.TID 0000.0001) saltImplVertAdv = /* Sali. implicit vert. advection on/off */
(PID.TID 0000.0001)                   F
(PID.TID 0000.0001)     ;
(PID.TID 0000.0001) saltForcing  =  /* Salinity forcing on/off flag */
(PID.TID 0000.0001)                   T
(PID.TID 0000.0001)     ;
(PID.TID 0000.0001) doSaltClimRelax = /* apply SSS relaxation on/off flag */
(PID.TID 0000.0001)                   F
(PID.TID 0000.0001)     ;
(PID.TID 0000.0001) saltIsActiveTr = /* Salt  is a dynamically Active Tracer */
(PID.TID 0000.0001)                   T
(PID.TID 0000.0001)     ;
(PID.TID 0000.0001)  readBinaryPrec = /* Precision used for reading binary files */
(PID.TID 0000.0001)                      64
(PID.TID 0000.0001)     ;
(PID.TID 0000.0001) writeBinaryPrec = /* Precision used for writing binary files */
(PID.TID 0000.0001)                      32
(PID.TID 0000.0001)     ;
(PID.TID 0000.0001)  globalFiles = /* write "global" (=not per tile) files */
(PID.TID 0000.0001)                   F
(PID.TID 0000.0001)     ;
(PID.TID 0000.0001)  useSingleCpuIO = /* only master MPI process does I/O */
(PID.TID 0000.0001)                   T
(PID.TID 0000.0001)     ;
(PID.TID 0000.0001) /* debLev[*]  : level of debug & auxiliary message printing */
(PID.TID 0000.0001) debLevZero =  0 ; /* level of disabled aux. msg printing */
(PID.TID 0000.0001)    debLevA =  1 ; /* level of minimum  aux. msg printing */
(PID.TID 0000.0001)    debLevB =  2 ; /* level of low aux. print (report read-file opening)*/
(PID.TID 0000.0001)    debLevC =  3 ; /* level of moderate debug prt (most pkgs debug msg) */
(PID.TID 0000.0001)    debLevD =  4 ; /* level of enhanced debug prt (add DEBUG_STATS prt) */
(PID.TID 0000.0001)    debLevE =  5 ; /* level of extensive debug printing */
(PID.TID 0000.0001) debugLevel =  /* select debug printing level */
(PID.TID 0000.0001)                       2
(PID.TID 0000.0001)     ;
(PID.TID 0000.0001) //
(PID.TID 0000.0001) // Elliptic solver(s) paramters ( PARM02 in namelist )
(PID.TID 0000.0001) //
(PID.TID 0000.0001) cg2dMaxIters =   /* Upper limit on 2d con. grad iterations  */
(PID.TID 0000.0001)                     200
(PID.TID 0000.0001)     ;
(PID.TID 0000.0001) cg2dChkResFreq =   /* 2d con. grad convergence test frequency */
(PID.TID 0000.0001)                       1
(PID.TID 0000.0001)     ;
(PID.TID 0000.0001) cg2dUseMinResSol= /* use cg2d last-iter(=0) / min-resid.(=1) solution */
(PID.TID 0000.0001)                       0
(PID.TID 0000.0001)     ;
(PID.TID 0000.0001) cg2dTargetResidual =   /* 2d con. grad target residual  */
(PID.TID 0000.0001)                 1.000000000000000E-07
(PID.TID 0000.0001)     ;
(PID.TID 0000.0001) cg2dTargetResWunit =   /* CG2d target residual [W units] */
(PID.TID 0000.0001)                 1.000000000000000E-17
(PID.TID 0000.0001)     ;
(PID.TID 0000.0001) cg2dPreCondFreq =   /* Freq. for updating cg2d preconditioner */
(PID.TID 0000.0001)                       1
(PID.TID 0000.0001)     ;
(PID.TID 0000.0001) useSRCGSolver =  /* use single reduction CG solver(s) */
(PID.TID 0000.0001)                   F
(PID.TID 0000.0001)     ;
(PID.TID 0000.0001) printResidualFreq = /* Freq. for printing CG residual */
(PID.TID 0000.0001)                       0
(PID.TID 0000.0001)     ;
(PID.TID 0000.0001) //
(PID.TID 0000.0001) // Time stepping paramters ( PARM03 in namelist )
(PID.TID 0000.0001) //
(PID.TID 0000.0001) deltaTMom =   /* Momentum equation timestep ( s ) */
(PID.TID 0000.0001)                 4.500000000000000E+02
(PID.TID 0000.0001)     ;
(PID.TID 0000.0001) deltaTFreeSurf = /* FreeSurface equation timestep ( s ) */
(PID.TID 0000.0001)                 4.500000000000000E+02
(PID.TID 0000.0001)     ;
(PID.TID 0000.0001) dTtracerLev =  /* Tracer equation timestep ( s ) */
(PID.TID 0000.0001)     5 @  4.500000000000000E+02              /* K =  1:  5 */
(PID.TID 0000.0001)     ;
(PID.TID 0000.0001) deltaTClock  =   /* Model clock timestep ( s ) */
(PID.TID 0000.0001)                 4.500000000000000E+02
(PID.TID 0000.0001)     ;
(PID.TID 0000.0001) cAdjFreq =   /* Convective adjustment interval ( s ) */
(PID.TID 0000.0001)                 0.000000000000000E+00
(PID.TID 0000.0001)     ;
(PID.TID 0000.0001) momForcingOutAB = /* =1: take Momentum Forcing out of Adams-Bash. stepping */
(PID.TID 0000.0001)                       1
(PID.TID 0000.0001)     ;
(PID.TID 0000.0001) tracForcingOutAB = /* =1: take T,S,pTr Forcing out of Adams-Bash. stepping */
(PID.TID 0000.0001)                       1
(PID.TID 0000.0001)     ;
(PID.TID 0000.0001) momDissip_In_AB = /* put Dissipation Tendency in Adams-Bash. stepping */
(PID.TID 0000.0001)                   T
(PID.TID 0000.0001)     ;
(PID.TID 0000.0001) doAB_onGtGs = /* apply AB on Tendencies (rather than on T,S)*/
(PID.TID 0000.0001)                   T
(PID.TID 0000.0001)     ;
(PID.TID 0000.0001) abEps =   /* Adams-Bashforth-2 stabilizing weight */
(PID.TID 0000.0001)                 1.000000000000000E-01
(PID.TID 0000.0001)     ;
(PID.TID 0000.0001) pickupStrictlyMatch= /* stop if pickup do not strictly match */
(PID.TID 0000.0001)                   T
(PID.TID 0000.0001)     ;
(PID.TID 0000.0001) nIter0   =   /* Run starting timestep number */
(PID.TID 0000.0001)                       0
(PID.TID 0000.0001)     ;
(PID.TID 0000.0001) nTimeSteps = /* Number of timesteps */
(PID.TID 0000.0001)                      10
(PID.TID 0000.0001)     ;
(PID.TID 0000.0001) nEndIter =   /* Run ending timestep number */
(PID.TID 0000.0001)                      10
(PID.TID 0000.0001)     ;
(PID.TID 0000.0001) baseTime =   /* Model base time ( s ) */
(PID.TID 0000.0001)                 0.000000000000000E+00
(PID.TID 0000.0001)     ;
(PID.TID 0000.0001) startTime =  /* Run start time ( s ) */
(PID.TID 0000.0001)                 0.000000000000000E+00
(PID.TID 0000.0001)     ;
(PID.TID 0000.0001) endTime  =   /* Integration ending time ( s ) */
(PID.TID 0000.0001)                 4.500000000000000E+03
(PID.TID 0000.0001)     ;
(PID.TID 0000.0001) pChkPtFreq = /* Permanent restart/pickup file interval ( s ) */
(PID.TID 0000.0001)                 2.592000000000000E+06
(PID.TID 0000.0001)     ;
(PID.TID 0000.0001) chkPtFreq  = /* Rolling restart/pickup file interval ( s ) */
(PID.TID 0000.0001)                 0.000000000000000E+00
(PID.TID 0000.0001)     ;
(PID.TID 0000.0001) pickup_write_mdsio =   /* Model IO flag. */
(PID.TID 0000.0001)                   T
(PID.TID 0000.0001)     ;
(PID.TID 0000.0001) pickup_read_mdsio =   /* Model IO flag. */
(PID.TID 0000.0001)                   T
(PID.TID 0000.0001)     ;
(PID.TID 0000.0001) pickup_write_mnc =   /* Model IO flag. */
(PID.TID 0000.0001)                   F
(PID.TID 0000.0001)     ;
(PID.TID 0000.0001) pickup_read_mnc =   /* Model IO flag. */
(PID.TID 0000.0001)                   F
(PID.TID 0000.0001)     ;
(PID.TID 0000.0001) pickup_write_immed =   /* Model IO flag. */
(PID.TID 0000.0001)                   F
(PID.TID 0000.0001)     ;
(PID.TID 0000.0001) writePickupAtEnd =   /* Model IO flag. */
(PID.TID 0000.0001)                   T
(PID.TID 0000.0001)     ;
(PID.TID 0000.0001) dumpFreq =   /* Model state write out interval ( s ). */
(PID.TID 0000.0001)                 2.592000000000000E+06
(PID.TID 0000.0001)     ;
(PID.TID 0000.0001) dumpInitAndLast= /* write out Initial & Last iter. model state */
(PID.TID 0000.0001)                   T
(PID.TID 0000.0001)     ;
(PID.TID 0000.0001) snapshot_mdsio =   /* Model IO flag. */
(PID.TID 0000.0001)                   T
(PID.TID 0000.0001)     ;
(PID.TID 0000.0001) snapshot_mnc =   /* Model IO flag. */
(PID.TID 0000.0001)                   F
(PID.TID 0000.0001)     ;
(PID.TID 0000.0001) monitorFreq =   /* Monitor output interval ( s ). */
(PID.TID 0000.0001)                 1.000000000000000E+00
(PID.TID 0000.0001)     ;
(PID.TID 0000.0001) monitorSelect = /* select group of variables to monitor */
(PID.TID 0000.0001)                       2
(PID.TID 0000.0001)     ;
(PID.TID 0000.0001) monitor_stdio =   /* Model IO flag. */
(PID.TID 0000.0001)                   T
(PID.TID 0000.0001)     ;
(PID.TID 0000.0001) monitor_mnc =   /* Model IO flag. */
(PID.TID 0000.0001)                   F
(PID.TID 0000.0001)     ;
(PID.TID 0000.0001) externForcingPeriod =   /* forcing period (s) */
(PID.TID 0000.0001)                 0.000000000000000E+00
(PID.TID 0000.0001)     ;
(PID.TID 0000.0001) externForcingCycle =   /* period of the cyle (s). */
(PID.TID 0000.0001)                 0.000000000000000E+00
(PID.TID 0000.0001)     ;
(PID.TID 0000.0001) tauThetaClimRelax =   /* relaxation time scale (s) */
(PID.TID 0000.0001)                 0.000000000000000E+00
(PID.TID 0000.0001)     ;
(PID.TID 0000.0001) tauSaltClimRelax =   /* relaxation time scale (s) */
(PID.TID 0000.0001)                 0.000000000000000E+00
(PID.TID 0000.0001)     ;
(PID.TID 0000.0001) latBandClimRelax =   /* max. Lat. where relaxation */
(PID.TID 0000.0001)                 1.800000000000000E+02
(PID.TID 0000.0001)     ;
(PID.TID 0000.0001) //
(PID.TID 0000.0001) // Gridding paramters ( PARM04 in namelist )
(PID.TID 0000.0001) //
(PID.TID 0000.0001) usingCartesianGrid = /* Cartesian coordinates flag ( True/False ) */
(PID.TID 0000.0001)                   F
(PID.TID 0000.0001)     ;
(PID.TID 0000.0001) usingCylindricalGrid = /* Cylindrical coordinates flag ( True/False ) */
(PID.TID 0000.0001)                   F
(PID.TID 0000.0001)     ;
(PID.TID 0000.0001) usingSphericalPolarGrid = /* Spherical coordinates flag ( True/False ) */
(PID.TID 0000.0001)                   F
(PID.TID 0000.0001)     ;
(PID.TID 0000.0001) usingCurvilinearGrid = /* Curvilinear coordinates flag ( True/False ) */
(PID.TID 0000.0001)                   T
(PID.TID 0000.0001)     ;
(PID.TID 0000.0001) selectSigmaCoord = /* Hybrid-Sigma Vert. Coordinate option */
(PID.TID 0000.0001)                       0
(PID.TID 0000.0001)     ;
(PID.TID 0000.0001) Ro_SeaLevel = /* r(1) ( units of r == Pa ) */
(PID.TID 0000.0001)                 1.000000000000000E+05
(PID.TID 0000.0001)     ;
(PID.TID 0000.0001) rSigmaBnd = /* r/sigma transition ( units of r == Pa ) */
(PID.TID 0000.0001)                 1.234567000000000E+05
(PID.TID 0000.0001)     ;
(PID.TID 0000.0001) rkSign =   /* index orientation relative to vertical coordinate */
(PID.TID 0000.0001)                -1.000000000000000E+00
(PID.TID 0000.0001)     ;
(PID.TID 0000.0001) gravitySign = /* gravity orientation relative to vertical coordinate */
(PID.TID 0000.0001)                 1.000000000000000E+00
(PID.TID 0000.0001)     ;
(PID.TID 0000.0001) mass2rUnit = /* convert mass per unit area [kg/m2] to r-units [Pa] */
(PID.TID 0000.0001)                 9.810000000000000E+00
(PID.TID 0000.0001)     ;
(PID.TID 0000.0001) rUnit2mass = /* convert r-units [Pa] to mass per unit area [kg/m2] */
(PID.TID 0000.0001)                 1.019367991845056E-01
(PID.TID 0000.0001)     ;
(PID.TID 0000.0001) drC =   /* C spacing ( units of r ) */
(PID.TID 0000.0001)                 5.000000000000000E+03,      /* K =  1 */
(PID.TID 0000.0001)                 1.750000000000000E+04,      /* K =  2 */
(PID.TID 0000.0001)                 2.750000000000000E+04,      /* K =  3 */
(PID.TID 0000.0001)                 2.500000000000000E+04,      /* K =  4 */
(PID.TID 0000.0001)                 1.750000000000000E+04       /* K =  5 */
(PID.TID 0000.0001)     ;
(PID.TID 0000.0001) drF =   /* W spacing ( units of r ) */
(PID.TID 0000.0001)                 1.000000000000000E+04,      /* K =  1 */
(PID.TID 0000.0001)                 2.500000000000000E+04,      /* K =  2 */
(PID.TID 0000.0001)                 3.000000000000000E+04,      /* K =  3 */
(PID.TID 0000.0001)                 2.000000000000000E+04,      /* K =  4 */
(PID.TID 0000.0001)                 1.500000000000000E+04       /* K =  5 */
(PID.TID 0000.0001)     ;
(PID.TID 0000.0001) radius_fromHorizGrid = /* sphere Radius of input horiz. grid */
(PID.TID 0000.0001)                 6.370000000000000E+06
(PID.TID 0000.0001)     ;
(PID.TID 0000.0001) rSphere =  /* Radius ( ignored - cartesian, m - spherical ) */
(PID.TID 0000.0001)                 6.370000000000000E+06
(PID.TID 0000.0001)     ;
(PID.TID 0000.0001) deepAtmosphere = /* Deep/Shallow Atmosphere flag (True/False) */
(PID.TID 0000.0001)                   F
(PID.TID 0000.0001)     ;
(PID.TID 0000.0001) xC =  /* xC(:,1,:,1) : P-point X coord ( deg. or m if cartesian) */
(PID.TID 0000.0001)                -4.439521994760536E+01,      /* I =  1 */
(PID.TID 0000.0001)                -4.295641272275883E+01,      /* I =  2 */
(PID.TID 0000.0001)                -4.122055553388957E+01,      /* I =  3 */
(PID.TID 0000.0001)      . . .
(PID.TID 0000.0001)                 8.070819219728060E+01,      /* I = 46 */
(PID.TID 0000.0001)                 8.439652466417766E+01,      /* I = 47 */
(PID.TID 0000.0001)                 8.812739148696656E+01,      /* I = 48 */
(PID.TID 0000.0001)                 9.187260851303344E+01,      /* I = 49 */
(PID.TID 0000.0001)                 9.560347533582234E+01,      /* I = 50 */
(PID.TID 0000.0001)                 9.929180780271940E+01,      /* I = 51 */
(PID.TID 0000.0001)      . . .
(PID.TID 0000.0001)                 1.321863035748696E+02,      /* I = 94 */
(PID.TID 0000.0001)                 1.337919453120370E+02,      /* I = 95 */
(PID.TID 0000.0001)                 1.350000000000000E+02,      /* I = 96 */
(PID.TID 0000.0001)                 1.356047800523947E+02,      /* I = 97 */
(PID.TID 0000.0001)                 1.358367907661329E+02,      /* I = 98 */
(PID.TID 0000.0001)                 1.359720382181193E+02,      /* I = 99 */
(PID.TID 0000.0001)      . . .
(PID.TID 0000.0001)                -1.336511021209287E+02,      /* I =142 */
(PID.TID 0000.0001)                -1.336469399409420E+02,      /* I =143 */
(PID.TID 0000.0001)                -1.336449032499283E+02,      /* I =144 */
(PID.TID 0000.0001)                -1.336449032499283E+02,      /* I =145 */
(PID.TID 0000.0001)                -1.336469399409420E+02,      /* I =146 */
(PID.TID 0000.0001)                -1.336511021209287E+02,      /* I =147 */
(PID.TID 0000.0001)      . . .
(PID.TID 0000.0001)                 1.378136964251304E+02,      /* I =190 */
(PID.TID 0000.0001)                 1.362080546879630E+02,      /* I =191 */
(PID.TID 0000.0001)                 1.350000000000000E+02       /* I =192 */
(PID.TID 0000.0001)     ;
(PID.TID 0000.0001) yC =  /* yC(1,:,1,:) : P-point Y coord ( deg. or m if cartesian) */
(PID.TID 0000.0001)                -3.497677942598243E+01,      /* J =  1 */
(PID.TID 0000.0001)                -3.374005967394886E+01,      /* J =  2 */
(PID.TID 0000.0001)                -3.220655175667454E+01,      /* J =  3 */
(PID.TID 0000.0001)                -3.045756348838641E+01,      /* J =  4 */
(PID.TID 0000.0001)                -2.853728129852918E+01,      /* J =  5 */
(PID.TID 0000.0001)                -2.647426640173173E+01,      /* J =  6 */
(PID.TID 0000.0001)                -2.428936657094636E+01,      /* J =  7 */
(PID.TID 0000.0001)                -2.199915808312262E+01,      /* J =  8 */
(PID.TID 0000.0001)                -1.961768597440146E+01,      /* J =  9 */
(PID.TID 0000.0001)                -1.715743888281371E+01,      /* J = 10 */
(PID.TID 0000.0001)                -1.462993396899330E+01,      /* J = 11 */
(PID.TID 0000.0001)                -1.204608340464756E+01,      /* J = 12 */
(PID.TID 0000.0001)                -9.416429130284818E+00,      /* J = 13 */
(PID.TID 0000.0001)                -6.751293662992216E+00,      /* J = 14 */
(PID.TID 0000.0001)                -4.060875511835959E+00,      /* J = 15 */
(PID.TID 0000.0001)                -1.355307764409121E+00,      /* J = 16 */
(PID.TID 0000.0001)                 1.355307764409121E+00,      /* J = 17 */
(PID.TID 0000.0001)                 4.060875511835959E+00,      /* J = 18 */
(PID.TID 0000.0001)                 6.751293662992216E+00,      /* J = 19 */
(PID.TID 0000.0001)                 9.416429130284818E+00,      /* J = 20 */
(PID.TID 0000.0001)                 1.204608340464756E+01,      /* J = 21 */
(PID.TID 0000.0001)                 1.462993396899330E+01,      /* J = 22 */
(PID.TID 0000.0001)                 1.715743888281371E+01,      /* J = 23 */
(PID.TID 0000.0001)                 1.961768597440146E+01,      /* J = 24 */
(PID.TID 0000.0001)                 2.199915808312262E+01,      /* J = 25 */
(PID.TID 0000.0001)                 2.428936657094636E+01,      /* J = 26 */
(PID.TID 0000.0001)                 2.647426640173173E+01,      /* J = 27 */
(PID.TID 0000.0001)                 2.853728129852918E+01,      /* J = 28 */
(PID.TID 0000.0001)                 3.045756348838641E+01,      /* J = 29 */
(PID.TID 0000.0001)                 3.220655175667454E+01,      /* J = 30 */
(PID.TID 0000.0001)                 3.374005967394886E+01,      /* J = 31 */
(PID.TID 0000.0001)                 3.497677942598243E+01       /* J = 32 */
(PID.TID 0000.0001)     ;
(PID.TID 0000.0001) rcoord = /* P-point R coordinate (  units of r ) */
(PID.TID 0000.0001)                 9.500000000000000E+04,      /* K =  1 */
(PID.TID 0000.0001)                 7.750000000000000E+04,      /* K =  2 */
(PID.TID 0000.0001)                 5.000000000000000E+04,      /* K =  3 */
(PID.TID 0000.0001)                 2.500000000000000E+04,      /* K =  4 */
(PID.TID 0000.0001)                 7.500000000000000E+03       /* K =  5 */
(PID.TID 0000.0001)     ;
(PID.TID 0000.0001) rF =   /* W-Interf. R coordinate (  units of r ) */
(PID.TID 0000.0001)                 1.000000000000000E+05,      /* K =  1 */
(PID.TID 0000.0001)                 9.000000000000000E+04,      /* K =  2 */
(PID.TID 0000.0001)                 6.500000000000000E+04,      /* K =  3 */
(PID.TID 0000.0001)                 3.500000000000000E+04,      /* K =  4 */
(PID.TID 0000.0001)                 1.500000000000000E+04,      /* K =  5 */
(PID.TID 0000.0001)                 0.000000000000000E+00       /* K =  6 */
(PID.TID 0000.0001)     ;
(PID.TID 0000.0001) deepFacC = /* deep-model grid factor @ cell-Center (-) */
(PID.TID 0000.0001)     5 @  1.000000000000000E+00              /* K =  1:  5 */
(PID.TID 0000.0001)     ;
(PID.TID 0000.0001) deepFacF = /* deep-model grid factor @ W-Interface (-) */
(PID.TID 0000.0001)     6 @  1.000000000000000E+00              /* K =  1:  6 */
(PID.TID 0000.0001)     ;
(PID.TID 0000.0001) rVel2wUnit = /* convert units: rVel -> wSpeed (=1 if z-coord)*/
(PID.TID 0000.0001)                 8.468280180573759E-02,      /* K =  1 */
(PID.TID 0000.0001)                 9.264164924838553E-02,      /* K =  2 */
(PID.TID 0000.0001)                 1.218363765768670E-01,      /* K =  3 */
(PID.TID 0000.0001)                 2.012547327065781E-01,      /* K =  4 */
(PID.TID 0000.0001)                 4.382932217562046E-01,      /* K =  5 */
(PID.TID 0000.0001)                 1.000000000000000E+00       /* K =  6 */
(PID.TID 0000.0001)     ;
(PID.TID 0000.0001) wUnit2rVel = /* convert units: wSpeed -> rVel (=1 if z-coord)*/
(PID.TID 0000.0001)                 1.180877319451476E+01,      /* K =  1 */
(PID.TID 0000.0001)                 1.079428106162982E+01,      /* K =  2 */
(PID.TID 0000.0001)                 8.207729317763288E+00,      /* K =  3 */
(PID.TID 0000.0001)                 4.968827249682435E+00,      /* K =  4 */
(PID.TID 0000.0001)                 2.281577606865748E+00,      /* K =  5 */
(PID.TID 0000.0001)                 1.000000000000000E+00       /* K =  6 */
(PID.TID 0000.0001)     ;
(PID.TID 0000.0001) dBdrRef = /* Vertical grad. of reference buoyancy [(m/s/r)^2] */
(PID.TID 0000.0001)                 0.000000000000000E+00,      /* K =  1 */
(PID.TID 0000.0001)                 1.551846956946958E-06,      /* K =  2 */
(PID.TID 0000.0001)                 2.382518577942705E-06,      /* K =  3 */
(PID.TID 0000.0001)                 5.042981208886097E-06,      /* K =  4 */
(PID.TID 0000.0001)                 6.524166098263503E-05       /* K =  5 */
(PID.TID 0000.0001)     ;
(PID.TID 0000.0001) rotateGrid = /* use rotated grid ( True/False ) */
(PID.TID 0000.0001)                   F
(PID.TID 0000.0001)     ;
(PID.TID 0000.0001) phiEuler = /* Euler angle, rotation about original z-coordinate [rad] */
(PID.TID 0000.0001)                 0.000000000000000E+00
(PID.TID 0000.0001)     ;
(PID.TID 0000.0001) thetaEuler = /* Euler angle, rotation about new x-coordinate [rad] */
(PID.TID 0000.0001)                 0.000000000000000E+00
(PID.TID 0000.0001)     ;
(PID.TID 0000.0001) psiEuler = /* Euler angle, rotation about new z-coordinate [rad] */
(PID.TID 0000.0001)                 0.000000000000000E+00
(PID.TID 0000.0001)     ;
(PID.TID 0000.0001) dxF =  /* dxF(:,1,:,1) ( units: m ) */
(PID.TID 0000.0001)                 1.202082051331828E+05,      /* I =  1 */
(PID.TID 0000.0001)                 1.563594089971120E+05,      /* I =  2 */
(PID.TID 0000.0001)                 1.835530058121492E+05,      /* I =  3 */
(PID.TID 0000.0001)      . . .
(PID.TID 0000.0001)                 2.978501920522794E+05,      /* I = 46 */
(PID.TID 0000.0001)                 3.000967749619962E+05,      /* I = 47 */
(PID.TID 0000.0001)                 3.012190981969055E+05,      /* I = 48 */
(PID.TID 0000.0001)                 3.012190981969055E+05,      /* I = 49 */
(PID.TID 0000.0001)                 3.000967749619962E+05,      /* I = 50 */
(PID.TID 0000.0001)                 2.978501920522794E+05,      /* I = 51 */
(PID.TID 0000.0001)      . . .
(PID.TID 0000.0001)                 1.835530058121492E+05,      /* I = 94 */
(PID.TID 0000.0001)                 1.563594089971120E+05,      /* I = 95 */
(PID.TID 0000.0001)                 1.202082051331828E+05,      /* I = 96 */
(PID.TID 0000.0001)                 1.202082051331828E+05,      /* I = 97 */
(PID.TID 0000.0001)                 1.563594089971120E+05,      /* I = 98 */
(PID.TID 0000.0001)                 1.835530058121492E+05,      /* I = 99 */
(PID.TID 0000.0001)      . . .
(PID.TID 0000.0001)                 2.978501920522794E+05,      /* I =142 */
(PID.TID 0000.0001)                 3.000967749619962E+05,      /* I =143 */
(PID.TID 0000.0001)                 3.012190981969055E+05,      /* I =144 */
(PID.TID 0000.0001)                 3.012190981969055E+05,      /* I =145 */
(PID.TID 0000.0001)                 3.000967749619962E+05,      /* I =146 */
(PID.TID 0000.0001)                 2.978501920522794E+05,      /* I =147 */
(PID.TID 0000.0001)      . . .
(PID.TID 0000.0001)                 1.835530058121492E+05,      /* I =190 */
(PID.TID 0000.0001)                 1.563594089971120E+05,      /* I =191 */
(PID.TID 0000.0001)                 1.202082051331828E+05       /* I =192 */
(PID.TID 0000.0001)     ;
(PID.TID 0000.0001) dxF =  /* dxF(1,:,1,:) ( units: m ) */
(PID.TID 0000.0001)                 1.202082051331828E+05,      /* J =  1 */
(PID.TID 0000.0001)                 1.572908084538706E+05,      /* J =  2 */
(PID.TID 0000.0001)                 1.840412227747703E+05,      /* J =  3 */
(PID.TID 0000.0001)                 2.048868197919576E+05,      /* J =  4 */
(PID.TID 0000.0001)                 2.220405216043041E+05,      /* J =  5 */
(PID.TID 0000.0001)                 2.365892017348392E+05,      /* J =  6 */
(PID.TID 0000.0001)                 2.491250781852558E+05,      /* J =  7 */
(PID.TID 0000.0001)                 2.599949918261881E+05,      /* J =  8 */
(PID.TID 0000.0001)                 2.694110134598581E+05,      /* J =  9 */
(PID.TID 0000.0001)                 2.775055554645015E+05,      /* J = 10 */
(PID.TID 0000.0001)                 2.843615645344775E+05,      /* J = 11 */
(PID.TID 0000.0001)                 2.900303768613599E+05,      /* J = 12 */
(PID.TID 0000.0001)                 2.945429307892709E+05,      /* J = 13 */
(PID.TID 0000.0001)                 2.979171143158405E+05,      /* J = 14 */
(PID.TID 0000.0001)                 3.001626787528886E+05,      /* J = 15 */
(PID.TID 0000.0001)     2 @  3.012844832048790E+05,             /* J = 16: 17 */
(PID.TID 0000.0001)                 3.001626787528886E+05,      /* J = 18 */
(PID.TID 0000.0001)                 2.979171143158405E+05,      /* J = 19 */
(PID.TID 0000.0001)                 2.945429307892709E+05,      /* J = 20 */
(PID.TID 0000.0001)                 2.900303768613599E+05,      /* J = 21 */
(PID.TID 0000.0001)                 2.843615645344775E+05,      /* J = 22 */
(PID.TID 0000.0001)                 2.775055554645015E+05,      /* J = 23 */
(PID.TID 0000.0001)                 2.694110134598581E+05,      /* J = 24 */
(PID.TID 0000.0001)                 2.599949918261881E+05,      /* J = 25 */
(PID.TID 0000.0001)                 2.491250781852558E+05,      /* J = 26 */
(PID.TID 0000.0001)                 2.365892017348392E+05,      /* J = 27 */
(PID.TID 0000.0001)                 2.220405216043041E+05,      /* J = 28 */
(PID.TID 0000.0001)                 2.048868197919576E+05,      /* J = 29 */
(PID.TID 0000.0001)                 1.840412227747703E+05,      /* J = 30 */
(PID.TID 0000.0001)                 1.572908084538706E+05,      /* J = 31 */
(PID.TID 0000.0001)                 1.202082051331828E+05       /* J = 32 */
(PID.TID 0000.0001)     ;
(PID.TID 0000.0001) dyF =  /* dyF(:,1,:,1) ( units: m ) */
(PID.TID 0000.0001)                 1.202082051331828E+05,      /* I =  1 */
(PID.TID 0000.0001)                 1.572908084538706E+05,      /* I =  2 */
(PID.TID 0000.0001)                 1.840412227747703E+05,      /* I =  3 */
(PID.TID 0000.0001)      . . .
(PID.TID 0000.0001)                 2.979171143158405E+05,      /* I = 46 */
(PID.TID 0000.0001)                 3.001626787528886E+05,      /* I = 47 */
(PID.TID 0000.0001)                 3.012844832048790E+05,      /* I = 48 */
(PID.TID 0000.0001)                 3.012844832048790E+05,      /* I = 49 */
(PID.TID 0000.0001)                 3.001626787528886E+05,      /* I = 50 */
(PID.TID 0000.0001)                 2.979171143158405E+05,      /* I = 51 */
(PID.TID 0000.0001)      . . .
(PID.TID 0000.0001)                 1.840412227747703E+05,      /* I = 94 */
(PID.TID 0000.0001)                 1.572908084538706E+05,      /* I = 95 */
(PID.TID 0000.0001)                 1.202082051331828E+05,      /* I = 96 */
(PID.TID 0000.0001)                 1.202082051331828E+05,      /* I = 97 */
(PID.TID 0000.0001)                 1.572908084538706E+05,      /* I = 98 */
(PID.TID 0000.0001)                 1.840412227747703E+05,      /* I = 99 */
(PID.TID 0000.0001)      . . .
(PID.TID 0000.0001)                 2.979171143158405E+05,      /* I =142 */
(PID.TID 0000.0001)                 3.001626787528886E+05,      /* I =143 */
(PID.TID 0000.0001)                 3.012844832048790E+05,      /* I =144 */
(PID.TID 0000.0001)                 3.012844832048790E+05,      /* I =145 */
(PID.TID 0000.0001)                 3.001626787528886E+05,      /* I =146 */
(PID.TID 0000.0001)                 2.979171143158405E+05,      /* I =147 */
(PID.TID 0000.0001)      . . .
(PID.TID 0000.0001)                 1.840412227747703E+05,      /* I =190 */
(PID.TID 0000.0001)                 1.572908084538706E+05,      /* I =191 */
(PID.TID 0000.0001)                 1.202082051331828E+05       /* I =192 */
(PID.TID 0000.0001)     ;
(PID.TID 0000.0001) dyF =  /* dyF(1,:,1,:) ( units: m ) */
(PID.TID 0000.0001)                 1.202082051331828E+05,      /* J =  1 */
(PID.TID 0000.0001)                 1.563594089971120E+05,      /* J =  2 */
(PID.TID 0000.0001)                 1.835530058121492E+05,      /* J =  3 */
(PID.TID 0000.0001)                 2.045883481718707E+05,      /* J =  4 */
(PID.TID 0000.0001)                 2.218350349844185E+05,      /* J =  5 */
(PID.TID 0000.0001)                 2.364352994647058E+05,      /* J =  6 */
(PID.TID 0000.0001)                 2.490022710862746E+05,      /* J =  7 */
(PID.TID 0000.0001)                 2.598919724358304E+05,      /* J =  8 */
(PID.TID 0000.0001)                 2.693210245495156E+05,      /* J =  9 */
(PID.TID 0000.0001)                 2.774243179696503E+05,      /* J = 10 */
(PID.TID 0000.0001)                 2.842862532064524E+05,      /* J = 11 */
(PID.TID 0000.0001)                 2.899590699694043E+05,      /* J = 12 */
(PID.TID 0000.0001)                 2.944742915095688E+05,      /* J = 13 */
(PID.TID 0000.0001)                 2.978501920522794E+05,      /* J = 14 */
(PID.TID 0000.0001)                 3.000967749619962E+05,      /* J = 15 */
(PID.TID 0000.0001)     2 @  3.012190981969055E+05,             /* J = 16: 17 */
(PID.TID 0000.0001)                 3.000967749619962E+05,      /* J = 18 */
(PID.TID 0000.0001)                 2.978501920522794E+05,      /* J = 19 */
(PID.TID 0000.0001)                 2.944742915095688E+05,      /* J = 20 */
(PID.TID 0000.0001)                 2.899590699694043E+05,      /* J = 21 */
(PID.TID 0000.0001)                 2.842862532064524E+05,      /* J = 22 */
(PID.TID 0000.0001)                 2.774243179696503E+05,      /* J = 23 */
(PID.TID 0000.0001)                 2.693210245495156E+05,      /* J = 24 */
(PID.TID 0000.0001)                 2.598919724358304E+05,      /* J = 25 */
(PID.TID 0000.0001)                 2.490022710862746E+05,      /* J = 26 */
(PID.TID 0000.0001)                 2.364352994647058E+05,      /* J = 27 */
(PID.TID 0000.0001)                 2.218350349844185E+05,      /* J = 28 */
(PID.TID 0000.0001)                 2.045883481718707E+05,      /* J = 29 */
(PID.TID 0000.0001)                 1.835530058121492E+05,      /* J = 30 */
(PID.TID 0000.0001)                 1.563594089971120E+05,      /* J = 31 */
(PID.TID 0000.0001)                 1.202082051331828E+05       /* J = 32 */
(PID.TID 0000.0001)     ;
(PID.TID 0000.0001) dxG =  /* dxG(:,1,:,1) ( units: m ) */
(PID.TID 0000.0001)                 1.009837800879055E+05,      /* I =  1 */
(PID.TID 0000.0001)                 1.534505834330338E+05,      /* I =  2 */
(PID.TID 0000.0001)                 1.823321598773926E+05,      /* I =  3 */
(PID.TID 0000.0001)      . . .
(PID.TID 0000.0001)                 2.977867909042096E+05,      /* I = 46 */
(PID.TID 0000.0001)                 3.000380090330854E+05,      /* I = 47 */
(PID.TID 0000.0001)                 3.011625828699101E+05,      /* I = 48 */
(PID.TID 0000.0001)                 3.011625828699101E+05,      /* I = 49 */
(PID.TID 0000.0001)                 3.000380090330854E+05,      /* I = 50 */
(PID.TID 0000.0001)                 2.977867909042096E+05,      /* I = 51 */
(PID.TID 0000.0001)      . . .
(PID.TID 0000.0001)                 1.823321598773926E+05,      /* I = 94 */
(PID.TID 0000.0001)                 1.534505834330338E+05,      /* I = 95 */
(PID.TID 0000.0001)                 1.009837800879055E+05,      /* I = 96 */
(PID.TID 0000.0001)                 1.009837800879055E+05,      /* I = 97 */
(PID.TID 0000.0001)                 1.534505834330338E+05,      /* I = 98 */
(PID.TID 0000.0001)                 1.823321598773926E+05,      /* I = 99 */
(PID.TID 0000.0001)      . . .
(PID.TID 0000.0001)                 2.977867909042096E+05,      /* I =142 */
(PID.TID 0000.0001)                 3.000380090330854E+05,      /* I =143 */
(PID.TID 0000.0001)                 3.011625828699101E+05,      /* I =144 */
(PID.TID 0000.0001)                 3.011625828699101E+05,      /* I =145 */
(PID.TID 0000.0001)                 3.000380090330854E+05,      /* I =146 */
(PID.TID 0000.0001)                 2.977867909042096E+05,      /* I =147 */
(PID.TID 0000.0001)      . . .
(PID.TID 0000.0001)                 1.823321598773926E+05,      /* I =190 */
(PID.TID 0000.0001)                 1.534505834330338E+05,      /* I =191 */
(PID.TID 0000.0001)                 1.009837800879055E+05       /* I =192 */
(PID.TID 0000.0001)     ;
(PID.TID 0000.0001) dxG =  /* dxG(1,:,1,:) ( units: m ) */
(PID.TID 0000.0001)                 1.009837800879055E+05,      /* J =  1 */
(PID.TID 0000.0001)                 1.403701524205398E+05,      /* J =  2 */
(PID.TID 0000.0001)                 1.716197227386011E+05,      /* J =  3 */
(PID.TID 0000.0001)                 1.950254041626018E+05,      /* J =  4 */
(PID.TID 0000.0001)                 2.138410773065497E+05,      /* J =  5 */
(PID.TID 0000.0001)                 2.295958105911512E+05,      /* J =  6 */
(PID.TID 0000.0001)                 2.430829951739083E+05,      /* J =  7 */
(PID.TID 0000.0001)                 2.547526806712889E+05,      /* J =  8 */
(PID.TID 0000.0001)                 2.648750305193301E+05,      /* J =  9 */
(PID.TID 0000.0001)                 2.736173771018112E+05,      /* J = 10 */
(PID.TID 0000.0001)                 2.810845823202647E+05,      /* J = 11 */
(PID.TID 0000.0001)                 2.873420591008078E+05,      /* J = 12 */
(PID.TID 0000.0001)                 2.924298293668651E+05,      /* J = 13 */
(PID.TID 0000.0001)                 2.963715635865306E+05,      /* J = 14 */
(PID.TID 0000.0001)                 2.991805843171258E+05,      /* J = 15 */
(PID.TID 0000.0001)                 3.008638765647886E+05,      /* J = 16 */
(PID.TID 0000.0001)                 3.014246674484008E+05,      /* J = 17 */
(PID.TID 0000.0001)                 3.008638765647886E+05,      /* J = 18 */
(PID.TID 0000.0001)                 2.991805843171258E+05,      /* J = 19 */
(PID.TID 0000.0001)                 2.963715635865306E+05,      /* J = 20 */
(PID.TID 0000.0001)                 2.924298293668651E+05,      /* J = 21 */
(PID.TID 0000.0001)                 2.873420591008078E+05,      /* J = 22 */
(PID.TID 0000.0001)                 2.810845823202647E+05,      /* J = 23 */
(PID.TID 0000.0001)                 2.736173771018112E+05,      /* J = 24 */
(PID.TID 0000.0001)                 2.648750305193301E+05,      /* J = 25 */
(PID.TID 0000.0001)                 2.547526806712889E+05,      /* J = 26 */
(PID.TID 0000.0001)                 2.430829951739083E+05,      /* J = 27 */
(PID.TID 0000.0001)                 2.295958105911512E+05,      /* J = 28 */
(PID.TID 0000.0001)                 2.138410773065497E+05,      /* J = 29 */
(PID.TID 0000.0001)                 1.950254041626018E+05,      /* J = 30 */
(PID.TID 0000.0001)                 1.716197227386011E+05,      /* J = 31 */
(PID.TID 0000.0001)                 1.403701524205398E+05       /* J = 32 */
(PID.TID 0000.0001)     ;
(PID.TID 0000.0001) dyG =  /* dyG(:,1,:,1) ( units: m ) */
(PID.TID 0000.0001)                 1.009837800879055E+05,      /* I =  1 */
(PID.TID 0000.0001)                 1.403701524205398E+05,      /* I =  2 */
(PID.TID 0000.0001)                 1.716197227386011E+05,      /* I =  3 */
(PID.TID 0000.0001)      . . .
(PID.TID 0000.0001)                 2.963715635865306E+05,      /* I = 46 */
(PID.TID 0000.0001)                 2.991805843171258E+05,      /* I = 47 */
(PID.TID 0000.0001)                 3.008638765647886E+05,      /* I = 48 */
(PID.TID 0000.0001)                 3.014246674484008E+05,      /* I = 49 */
(PID.TID 0000.0001)                 3.008638765647886E+05,      /* I = 50 */
(PID.TID 0000.0001)                 2.991805843171258E+05,      /* I = 51 */
(PID.TID 0000.0001)      . . .
(PID.TID 0000.0001)                 1.950254041626018E+05,      /* I = 94 */
(PID.TID 0000.0001)                 1.716197227386011E+05,      /* I = 95 */
(PID.TID 0000.0001)                 1.403701524205398E+05,      /* I = 96 */
(PID.TID 0000.0001)                 1.009837800879055E+05,      /* I = 97 */
(PID.TID 0000.0001)                 1.403701524205398E+05,      /* I = 98 */
(PID.TID 0000.0001)                 1.716197227386011E+05,      /* I = 99 */
(PID.TID 0000.0001)      . . .
(PID.TID 0000.0001)                 2.963715635865306E+05,      /* I =142 */
(PID.TID 0000.0001)                 2.991805843171258E+05,      /* I =143 */
(PID.TID 0000.0001)                 3.008638765647886E+05,      /* I =144 */
(PID.TID 0000.0001)                 3.014246674484008E+05,      /* I =145 */
(PID.TID 0000.0001)                 3.008638765647886E+05,      /* I =146 */
(PID.TID 0000.0001)                 2.991805843171258E+05,      /* I =147 */
(PID.TID 0000.0001)      . . .
(PID.TID 0000.0001)                 1.950254041626018E+05,      /* I =190 */
(PID.TID 0000.0001)                 1.716197227386011E+05,      /* I =191 */
(PID.TID 0000.0001)                 1.403701524205398E+05       /* I =192 */
(PID.TID 0000.0001)     ;
(PID.TID 0000.0001) dyG =  /* dyG(1,:,1,:) ( units: m ) */
(PID.TID 0000.0001)                 1.009837800879055E+05,      /* J =  1 */
(PID.TID 0000.0001)                 1.534505834330338E+05,      /* J =  2 */
(PID.TID 0000.0001)                 1.823321598773926E+05,      /* J =  3 */
(PID.TID 0000.0001)                 2.038999045536999E+05,      /* J =  4 */
(PID.TID 0000.0001)                 2.213884732245467E+05,      /* J =  5 */
(PID.TID 0000.0001)                 2.361211699596122E+05,      /* J =  6 */
(PID.TID 0000.0001)                 2.487693460283865E+05,      /* J =  7 */
(PID.TID 0000.0001)                 2.597126963772147E+05,      /* J =  8 */
(PID.TID 0000.0001)                 2.691790288994575E+05,      /* J =  9 */
(PID.TID 0000.0001)                 2.773091043277394E+05,      /* J = 10 */
(PID.TID 0000.0001)                 2.841906470085516E+05,      /* J = 11 */
(PID.TID 0000.0001)                 2.898778860929753E+05,      /* J = 12 */
(PID.TID 0000.0001)                 2.944035815526416E+05,      /* J = 13 */
(PID.TID 0000.0001)                 2.977867909042096E+05,      /* J = 14 */
(PID.TID 0000.0001)                 3.000380090330854E+05,      /* J = 15 */
(PID.TID 0000.0001)     2 @  3.011625828699101E+05,             /* J = 16: 17 */
(PID.TID 0000.0001)                 3.000380090330854E+05,      /* J = 18 */
(PID.TID 0000.0001)                 2.977867909042096E+05,      /* J = 19 */
(PID.TID 0000.0001)                 2.944035815526416E+05,      /* J = 20 */
(PID.TID 0000.0001)                 2.898778860929753E+05,      /* J = 21 */
(PID.TID 0000.0001)                 2.841906470085516E+05,      /* J = 22 */
(PID.TID 0000.0001)                 2.773091043277394E+05,      /* J = 23 */
(PID.TID 0000.0001)                 2.691790288994575E+05,      /* J = 24 */
(PID.TID 0000.0001)                 2.597126963772147E+05,      /* J = 25 */
(PID.TID 0000.0001)                 2.487693460283865E+05,      /* J = 26 */
(PID.TID 0000.0001)                 2.361211699596122E+05,      /* J = 27 */
(PID.TID 0000.0001)                 2.213884732245467E+05,      /* J = 28 */
(PID.TID 0000.0001)                 2.038999045536999E+05,      /* J = 29 */
(PID.TID 0000.0001)                 1.823321598773926E+05,      /* J = 30 */
(PID.TID 0000.0001)                 1.534505834330338E+05,      /* J = 31 */
(PID.TID 0000.0001)                 1.009837800879055E+05       /* J = 32 */
(PID.TID 0000.0001)     ;
(PID.TID 0000.0001) dxC =  /* dxC(:,1,:,1) ( units: m ) */
(PID.TID 0000.0001)                 1.114203141013064E+05,      /* I =  1 */
(PID.TID 0000.0001)                 1.391343389937106E+05,      /* I =  2 */
(PID.TID 0000.0001)                 1.709574999026266E+05,      /* I =  3 */
(PID.TID 0000.0001)      . . .
(PID.TID 0000.0001)                 2.963038832565530E+05,      /* I = 46 */
(PID.TID 0000.0001)                 2.991142470004740E+05,      /* I = 47 */
(PID.TID 0000.0001)                 3.007982711627968E+05,      /* I = 48 */
(PID.TID 0000.0001)                 3.013593857228136E+05,      /* I = 49 */
(PID.TID 0000.0001)                 3.007982711627968E+05,      /* I = 50 */
(PID.TID 0000.0001)                 2.991142470004740E+05,      /* I = 51 */
(PID.TID 0000.0001)      . . .
(PID.TID 0000.0001)                 1.946503699269892E+05,      /* I = 94 */
(PID.TID 0000.0001)                 1.709574999026266E+05,      /* I = 95 */
(PID.TID 0000.0001)                 1.391343389937106E+05,      /* I = 96 */
(PID.TID 0000.0001)                 1.114203141013064E+05,      /* I = 97 */
(PID.TID 0000.0001)                 1.391343389937106E+05,      /* I = 98 */
(PID.TID 0000.0001)                 1.709574999026266E+05,      /* I = 99 */
(PID.TID 0000.0001)      . . .
(PID.TID 0000.0001)                 2.963038832565530E+05,      /* I =142 */
(PID.TID 0000.0001)                 2.991142470004740E+05,      /* I =143 */
(PID.TID 0000.0001)                 3.007982711627968E+05,      /* I =144 */
(PID.TID 0000.0001)                 3.013593857228136E+05,      /* I =145 */
(PID.TID 0000.0001)                 3.007982711627968E+05,      /* I =146 */
(PID.TID 0000.0001)                 2.991142470004740E+05,      /* I =147 */
(PID.TID 0000.0001)      . . .
(PID.TID 0000.0001)                 1.946503699269892E+05,      /* I =190 */
(PID.TID 0000.0001)                 1.709574999026266E+05,      /* I =191 */
(PID.TID 0000.0001)                 1.391343389937106E+05       /* I =192 */
(PID.TID 0000.0001)     ;
(PID.TID 0000.0001) dxC =  /* dxC(1,:,1,:) ( units: m ) */
(PID.TID 0000.0001)                 1.114203141013064E+05,      /* J =  1 */
(PID.TID 0000.0001)                 1.549545757850771E+05,      /* J =  2 */
(PID.TID 0000.0001)                 1.829777599966776E+05,      /* J =  3 */
(PID.TID 0000.0001)                 2.042717761866506E+05,      /* J =  4 */
(PID.TID 0000.0001)                 2.216367828252819E+05,      /* J =  5 */
(PID.TID 0000.0001)                 2.363029564123586E+05,      /* J =  6 */
(PID.TID 0000.0001)                 2.489113743322025E+05,      /* J =  7 */
(PID.TID 0000.0001)                 2.598293319150326E+05,      /* J =  8 */
(PID.TID 0000.0001)                 2.692787333338535E+05,      /* J =  9 */
(PID.TID 0000.0001)                 2.773972106720365E+05,      /* J = 10 */
(PID.TID 0000.0001)                 2.842706922224557E+05,      /* J = 11 */
(PID.TID 0000.0001)                 2.899523122489403E+05,      /* J = 12 */
(PID.TID 0000.0001)                 2.944741346384699E+05,      /* J = 13 */
(PID.TID 0000.0001)                 2.978547649292580E+05,      /* J = 14 */
(PID.TID 0000.0001)                 3.001044073506459E+05,      /* J = 15 */
(PID.TID 0000.0001)     2 @  3.012281885409289E+05,             /* J = 16: 17 */
(PID.TID 0000.0001)                 3.001044073506459E+05,      /* J = 18 */
(PID.TID 0000.0001)                 2.978547649292580E+05,      /* J = 19 */
(PID.TID 0000.0001)                 2.944741346384699E+05,      /* J = 20 */
(PID.TID 0000.0001)                 2.899523122489403E+05,      /* J = 21 */
(PID.TID 0000.0001)                 2.842706922224557E+05,      /* J = 22 */
(PID.TID 0000.0001)                 2.773972106720365E+05,      /* J = 23 */
(PID.TID 0000.0001)                 2.692787333338535E+05,      /* J = 24 */
(PID.TID 0000.0001)                 2.598293319150326E+05,      /* J = 25 */
(PID.TID 0000.0001)                 2.489113743322025E+05,      /* J = 26 */
(PID.TID 0000.0001)                 2.363029564123586E+05,      /* J = 27 */
(PID.TID 0000.0001)                 2.216367828252819E+05,      /* J = 28 */
(PID.TID 0000.0001)                 2.042717761866506E+05,      /* J = 29 */
(PID.TID 0000.0001)                 1.829777599966776E+05,      /* J = 30 */
(PID.TID 0000.0001)                 1.549545757850771E+05,      /* J = 31 */
(PID.TID 0000.0001)                 1.114203141013064E+05       /* J = 32 */
(PID.TID 0000.0001)     ;
(PID.TID 0000.0001) dyC =  /* dyC(:,1,:,1) ( units: m ) */
(PID.TID 0000.0001)                 1.114203141013064E+05,      /* I =  1 */
(PID.TID 0000.0001)                 1.549545757850771E+05,      /* I =  2 */
(PID.TID 0000.0001)                 1.829777599966776E+05,      /* I =  3 */
(PID.TID 0000.0001)      . . .
(PID.TID 0000.0001)                 2.978547649292580E+05,      /* I = 46 */
(PID.TID 0000.0001)                 3.001044073506459E+05,      /* I = 47 */
(PID.TID 0000.0001)                 3.012281885409289E+05,      /* I = 48 */
(PID.TID 0000.0001)                 3.012281885409289E+05,      /* I = 49 */
(PID.TID 0000.0001)                 3.001044073506459E+05,      /* I = 50 */
(PID.TID 0000.0001)                 2.978547649292580E+05,      /* I = 51 */
(PID.TID 0000.0001)      . . .
(PID.TID 0000.0001)                 1.829777599966776E+05,      /* I = 94 */
(PID.TID 0000.0001)                 1.549545757850771E+05,      /* I = 95 */
(PID.TID 0000.0001)                 1.114203141013064E+05,      /* I = 96 */
(PID.TID 0000.0001)                 1.114203141013064E+05,      /* I = 97 */
(PID.TID 0000.0001)                 1.549545757850771E+05,      /* I = 98 */
(PID.TID 0000.0001)                 1.829777599966776E+05,      /* I = 99 */
(PID.TID 0000.0001)      . . .
(PID.TID 0000.0001)                 2.978547649292580E+05,      /* I =142 */
(PID.TID 0000.0001)                 3.001044073506459E+05,      /* I =143 */
(PID.TID 0000.0001)                 3.012281885409289E+05,      /* I =144 */
(PID.TID 0000.0001)                 3.012281885409289E+05,      /* I =145 */
(PID.TID 0000.0001)                 3.001044073506459E+05,      /* I =146 */
(PID.TID 0000.0001)                 2.978547649292580E+05,      /* I =147 */
(PID.TID 0000.0001)      . . .
(PID.TID 0000.0001)                 1.829777599966776E+05,      /* I =190 */
(PID.TID 0000.0001)                 1.549545757850771E+05,      /* I =191 */
(PID.TID 0000.0001)                 1.114203141013064E+05       /* I =192 */
(PID.TID 0000.0001)     ;
(PID.TID 0000.0001) dyC =  /* dyC(1,:,1,:) ( units: m ) */
(PID.TID 0000.0001)                 1.114203141013064E+05,      /* J =  1 */
(PID.TID 0000.0001)                 1.391343389937106E+05,      /* J =  2 */
(PID.TID 0000.0001)                 1.709574999026266E+05,      /* J =  3 */
(PID.TID 0000.0001)                 1.946503699269892E+05,      /* J =  4 */
(PID.TID 0000.0001)                 2.135964483342134E+05,      /* J =  5 */
(PID.TID 0000.0001)                 2.294195678257306E+05,      /* J =  6 */
(PID.TID 0000.0001)                 2.429464709770498E+05,      /* J =  7 */
(PID.TID 0000.0001)                 2.546408290696998E+05,      /* J =  8 */
(PID.TID 0000.0001)                 2.647791839299727E+05,      /* J =  9 */
(PID.TID 0000.0001)                 2.735321911346108E+05,      /* J = 10 */
(PID.TID 0000.0001)                 2.810065951609633E+05,      /* J = 11 */
(PID.TID 0000.0001)                 2.872689479506990E+05,      /* J = 12 */
(PID.TID 0000.0001)                 2.923599955312932E+05,      /* J = 13 */
(PID.TID 0000.0001)                 2.963038832565530E+05,      /* J = 14 */
(PID.TID 0000.0001)                 2.991142470004740E+05,      /* J = 15 */
(PID.TID 0000.0001)                 3.007982711627968E+05,      /* J = 16 */
(PID.TID 0000.0001)                 3.013593857228136E+05,      /* J = 17 */
(PID.TID 0000.0001)                 3.007982711627968E+05,      /* J = 18 */
(PID.TID 0000.0001)                 2.991142470004740E+05,      /* J = 19 */
(PID.TID 0000.0001)                 2.963038832565530E+05,      /* J = 20 */
(PID.TID 0000.0001)                 2.923599955312932E+05,      /* J = 21 */
(PID.TID 0000.0001)                 2.872689479506990E+05,      /* J = 22 */
(PID.TID 0000.0001)                 2.810065951609633E+05,      /* J = 23 */
(PID.TID 0000.0001)                 2.735321911346108E+05,      /* J = 24 */
(PID.TID 0000.0001)                 2.647791839299727E+05,      /* J = 25 */
(PID.TID 0000.0001)                 2.546408290696998E+05,      /* J = 26 */
(PID.TID 0000.0001)                 2.429464709770498E+05,      /* J = 27 */
(PID.TID 0000.0001)                 2.294195678257306E+05,      /* J = 28 */
(PID.TID 0000.0001)                 2.135964483342134E+05,      /* J = 29 */
(PID.TID 0000.0001)                 1.946503699269892E+05,      /* J = 30 */
(PID.TID 0000.0001)                 1.709574999026266E+05,      /* J = 31 */
(PID.TID 0000.0001)                 1.391343389937106E+05       /* J = 32 */
(PID.TID 0000.0001)     ;
(PID.TID 0000.0001) dxV =  /* dxV(:,1,:,1) ( units: m ) */
(PID.TID 0000.0001)                 8.015229982413632E+04,      /* I =  1 */
(PID.TID 0000.0001)                 1.333130744933864E+05,      /* I =  2 */
(PID.TID 0000.0001)                 1.691744868129062E+05,      /* I =  3 */
(PID.TID 0000.0001)      . . .
(PID.TID 0000.0001)                 2.962371870847826E+05,      /* I = 46 */
(PID.TID 0000.0001)                 2.990534755671296E+05,      /* I = 47 */
(PID.TID 0000.0001)                 3.007409169495504E+05,      /* I = 48 */
(PID.TID 0000.0001)                 3.013031486919771E+05,      /* I = 49 */
(PID.TID 0000.0001)                 3.007409169495504E+05,      /* I = 50 */
(PID.TID 0000.0001)                 2.990534755671296E+05,      /* I = 51 */
(PID.TID 0000.0001)      . . .
(PID.TID 0000.0001)                 1.937548202849060E+05,      /* I = 94 */
(PID.TID 0000.0001)                 1.691744868129062E+05,      /* I = 95 */
(PID.TID 0000.0001)                 1.333130744933864E+05,      /* I = 96 */
(PID.TID 0000.0001)                 8.015229982413632E+04,      /* I = 97 */
(PID.TID 0000.0001)                 1.333130744933864E+05,      /* I = 98 */
(PID.TID 0000.0001)                 1.691744868129062E+05,      /* I = 99 */
(PID.TID 0000.0001)      . . .
(PID.TID 0000.0001)                 2.962371870847826E+05,      /* I =142 */
(PID.TID 0000.0001)                 2.990534755671296E+05,      /* I =143 */
(PID.TID 0000.0001)                 3.007409169495504E+05,      /* I =144 */
(PID.TID 0000.0001)                 3.013031486919771E+05,      /* I =145 */
(PID.TID 0000.0001)                 3.007409169495504E+05,      /* I =146 */
(PID.TID 0000.0001)                 2.990534755671296E+05,      /* I =147 */
(PID.TID 0000.0001)      . . .
(PID.TID 0000.0001)                 1.937548202849060E+05,      /* I =190 */
(PID.TID 0000.0001)                 1.691744868129062E+05,      /* I =191 */
(PID.TID 0000.0001)                 1.333130744933864E+05       /* I =192 */
(PID.TID 0000.0001)     ;
(PID.TID 0000.0001) dxV =  /* dxV(1,:,1,:) ( units: m ) */
(PID.TID 0000.0001)                 8.015229982413632E+04,      /* J =  1 */
(PID.TID 0000.0001)                 1.362652340208229E+05,      /* J =  2 */
(PID.TID 0000.0001)                 1.701080315742101E+05,      /* J =  3 */
(PID.TID 0000.0001)                 1.942331448101592E+05,      /* J =  4 */
(PID.TID 0000.0001)                 2.133486626971531E+05,      /* J =  5 */
(PID.TID 0000.0001)                 2.292584591272880E+05,      /* J =  6 */
(PID.TID 0000.0001)                 2.428369969078989E+05,      /* J =  7 */
(PID.TID 0000.0001)                 2.545652950875683E+05,      /* J =  8 */
(PID.TID 0000.0001)                 2.647274964828301E+05,      /* J =  9 */
(PID.TID 0000.0001)                 2.734980225206389E+05,      /* J = 10 */
(PID.TID 0000.0001)                 2.809856491525217E+05,      /* J = 11 */
(PID.TID 0000.0001)                 2.872580915202295E+05,      /* J = 12 */
(PID.TID 0000.0001)                 2.923567890694162E+05,      /* J = 13 */
(PID.TID 0000.0001)                 2.963063101754721E+05,      /* J = 14 */
(PID.TID 0000.0001)                 2.991205495886625E+05,      /* J = 15 */
(PID.TID 0000.0001)                 3.008068453676764E+05,      /* J = 16 */
(PID.TID 0000.0001)                 3.013686170436881E+05,      /* J = 17 */
(PID.TID 0000.0001)                 3.008068453676764E+05,      /* J = 18 */
(PID.TID 0000.0001)                 2.991205495886625E+05,      /* J = 19 */
(PID.TID 0000.0001)                 2.963063101754721E+05,      /* J = 20 */
(PID.TID 0000.0001)                 2.923567890694162E+05,      /* J = 21 */
(PID.TID 0000.0001)                 2.872580915202295E+05,      /* J = 22 */
(PID.TID 0000.0001)                 2.809856491525217E+05,      /* J = 23 */
(PID.TID 0000.0001)                 2.734980225206389E+05,      /* J = 24 */
(PID.TID 0000.0001)                 2.647274964828301E+05,      /* J = 25 */
(PID.TID 0000.0001)                 2.545652950875683E+05,      /* J = 26 */
(PID.TID 0000.0001)                 2.428369969078989E+05,      /* J = 27 */
(PID.TID 0000.0001)                 2.292584591272880E+05,      /* J = 28 */
(PID.TID 0000.0001)                 2.133486626971531E+05,      /* J = 29 */
(PID.TID 0000.0001)                 1.942331448101592E+05,      /* J = 30 */
(PID.TID 0000.0001)                 1.701080315742101E+05,      /* J = 31 */
(PID.TID 0000.0001)                 1.362652340208229E+05       /* J = 32 */
(PID.TID 0000.0001)     ;
(PID.TID 0000.0001) dyU =  /* dyU(:,1,:,1) ( units: m ) */
(PID.TID 0000.0001)                 8.015229982413632E+04,      /* I =  1 */
(PID.TID 0000.0001)                 1.362652340208229E+05,      /* I =  2 */
(PID.TID 0000.0001)                 1.701080315742101E+05,      /* I =  3 */
(PID.TID 0000.0001)      . . .
(PID.TID 0000.0001)                 2.963063101754721E+05,      /* I = 46 */
(PID.TID 0000.0001)                 2.991205495886625E+05,      /* I = 47 */
(PID.TID 0000.0001)                 3.008068453676764E+05,      /* I = 48 */
(PID.TID 0000.0001)                 3.013686170436881E+05,      /* I = 49 */
(PID.TID 0000.0001)                 3.008068453676764E+05,      /* I = 50 */
(PID.TID 0000.0001)                 2.991205495886625E+05,      /* I = 51 */
(PID.TID 0000.0001)      . . .
(PID.TID 0000.0001)                 1.942331448101592E+05,      /* I = 94 */
(PID.TID 0000.0001)                 1.701080315742101E+05,      /* I = 95 */
(PID.TID 0000.0001)                 1.362652340208229E+05,      /* I = 96 */
(PID.TID 0000.0001)                 8.015229982413632E+04,      /* I = 97 */
(PID.TID 0000.0001)                 1.362652340208229E+05,      /* I = 98 */
(PID.TID 0000.0001)                 1.701080315742101E+05,      /* I = 99 */
(PID.TID 0000.0001)      . . .
(PID.TID 0000.0001)                 2.963063101754721E+05,      /* I =142 */
(PID.TID 0000.0001)                 2.991205495886625E+05,      /* I =143 */
(PID.TID 0000.0001)                 3.008068453676764E+05,      /* I =144 */
(PID.TID 0000.0001)                 3.013686170436881E+05,      /* I =145 */
(PID.TID 0000.0001)                 3.008068453676764E+05,      /* I =146 */
(PID.TID 0000.0001)                 2.991205495886625E+05,      /* I =147 */
(PID.TID 0000.0001)      . . .
(PID.TID 0000.0001)                 1.942331448101592E+05,      /* I =190 */
(PID.TID 0000.0001)                 1.701080315742101E+05,      /* I =191 */
(PID.TID 0000.0001)                 1.362652340208229E+05       /* I =192 */
(PID.TID 0000.0001)     ;
(PID.TID 0000.0001) dyU =  /* dyU(1,:,1,:) ( units: m ) */
(PID.TID 0000.0001)                 8.015229982413632E+04,      /* J =  1 */
(PID.TID 0000.0001)                 1.333130744933864E+05,      /* J =  2 */
(PID.TID 0000.0001)                 1.691744868129062E+05,      /* J =  3 */
(PID.TID 0000.0001)                 1.937548202849060E+05,      /* J =  4 */
(PID.TID 0000.0001)                 2.130490056267208E+05,      /* J =  5 */
(PID.TID 0000.0001)                 2.290479919481738E+05,      /* J =  6 */
(PID.TID 0000.0001)                 2.426774358027003E+05,      /* J =  7 */
(PID.TID 0000.0001)                 2.544372984215561E+05,      /* J =  8 */
(PID.TID 0000.0001)                 2.646201463834826E+05,      /* J =  9 */
(PID.TID 0000.0001)                 2.734046499619031E+05,      /* J = 10 */
(PID.TID 0000.0001)                 2.809019351693761E+05,      /* J = 11 */
(PID.TID 0000.0001)                 2.871811105274442E+05,      /* J = 12 */
(PID.TID 0000.0001)                 2.922844849381675E+05,      /* J = 13 */
(PID.TID 0000.0001)                 2.962371870847826E+05,      /* J = 14 */
(PID.TID 0000.0001)                 2.990534755671296E+05,      /* J = 15 */
(PID.TID 0000.0001)                 3.007409169495504E+05,      /* J = 16 */
(PID.TID 0000.0001)                 3.013031486919771E+05,      /* J = 17 */
(PID.TID 0000.0001)                 3.007409169495504E+05,      /* J = 18 */
(PID.TID 0000.0001)                 2.990534755671296E+05,      /* J = 19 */
(PID.TID 0000.0001)                 2.962371870847826E+05,      /* J = 20 */
(PID.TID 0000.0001)                 2.922844849381675E+05,      /* J = 21 */
(PID.TID 0000.0001)                 2.871811105274442E+05,      /* J = 22 */
(PID.TID 0000.0001)                 2.809019351693761E+05,      /* J = 23 */
(PID.TID 0000.0001)                 2.734046499619031E+05,      /* J = 24 */
(PID.TID 0000.0001)                 2.646201463834826E+05,      /* J = 25 */
(PID.TID 0000.0001)                 2.544372984215561E+05,      /* J = 26 */
(PID.TID 0000.0001)                 2.426774358027003E+05,      /* J = 27 */
(PID.TID 0000.0001)                 2.290479919481738E+05,      /* J = 28 */
(PID.TID 0000.0001)                 2.130490056267208E+05,      /* J = 29 */
(PID.TID 0000.0001)                 1.937548202849060E+05,      /* J = 30 */
(PID.TID 0000.0001)                 1.691744868129062E+05,      /* J = 31 */
(PID.TID 0000.0001)                 1.333130744933864E+05       /* J = 32 */
(PID.TID 0000.0001)     ;
(PID.TID 0000.0001) rA  =  /* rA (:,1,:,1) ( units: m^2 ) */
(PID.TID 0000.0001)                 1.401900702255611E+10,      /* I =  1 */
(PID.TID 0000.0001)                 2.459906945574446E+10,      /* I =  2 */
(PID.TID 0000.0001)                 3.378518544307869E+10,      /* I =  3 */
(PID.TID 0000.0001)      . . .
(PID.TID 0000.0001)                 8.874277443041928E+10,      /* I = 46 */
(PID.TID 0000.0001)                 9.008620045350865E+10,      /* I = 47 */
(PID.TID 0000.0001)                 9.076111290418457E+10,      /* I = 48 */
(PID.TID 0000.0001)                 9.076111290422060E+10,      /* I = 49 */
(PID.TID 0000.0001)                 9.008620045354469E+10,      /* I = 50 */
(PID.TID 0000.0001)                 8.874277443041928E+10,      /* I = 51 */
(PID.TID 0000.0001)      . . .
(PID.TID 0000.0001)                 3.378518544304265E+10,      /* I = 94 */
(PID.TID 0000.0001)                 2.459906945574446E+10,      /* I = 95 */
(PID.TID 0000.0001)                 1.401900702259215E+10,      /* I = 96 */
(PID.TID 0000.0001)                 1.401900702255611E+10,      /* I = 97 */
(PID.TID 0000.0001)                 2.459906945574446E+10,      /* I = 98 */
(PID.TID 0000.0001)                 3.378518544307869E+10,      /* I = 99 */
(PID.TID 0000.0001)      . . .
(PID.TID 0000.0001)                 8.874277443041928E+10,      /* I =142 */
(PID.TID 0000.0001)                 9.008620045350865E+10,      /* I =143 */
(PID.TID 0000.0001)                 9.076111290418457E+10,      /* I =144 */
(PID.TID 0000.0001)                 9.076111290422060E+10,      /* I =145 */
(PID.TID 0000.0001)                 9.008620045354469E+10,      /* I =146 */
(PID.TID 0000.0001)                 8.874277443041928E+10,      /* I =147 */
(PID.TID 0000.0001)      . . .
(PID.TID 0000.0001)                 3.378518544304265E+10,      /* I =190 */
(PID.TID 0000.0001)                 2.459906945574446E+10,      /* I =191 */
(PID.TID 0000.0001)                 1.401900702259215E+10       /* I =192 */
(PID.TID 0000.0001)     ;
(PID.TID 0000.0001) rA  =  /* rA (1,:,1,:) ( units: m^2 ) */
(PID.TID 0000.0001)                 1.401900702255611E+10,      /* J =  1 */
(PID.TID 0000.0001)                 2.459906945574446E+10,      /* J =  2 */
(PID.TID 0000.0001)                 3.378518544307869E+10,      /* J =  3 */
(PID.TID 0000.0001)                 4.192037169898667E+10,      /* J =  4 */
(PID.TID 0000.0001)                 4.925938996118163E+10,      /* J =  5 */
(PID.TID 0000.0001)                 5.594154126607553E+10,      /* J =  6 */
(PID.TID 0000.0001)                 6.203683527776127E+10,      /* J =  7 */
(PID.TID 0000.0001)                 6.757541173817516E+10,      /* J =  8 */
(PID.TID 0000.0001)                 7.256353271748119E+10,      /* J =  9 */
(PID.TID 0000.0001)                 7.699293007098555E+10,      /* J = 10 */
(PID.TID 0000.0001)                 8.084683449728902E+10,      /* J = 11 */
(PID.TID 0000.0001)                 8.410423102799828E+10,      /* J = 12 */
(PID.TID 0000.0001)                 8.674306976737517E+10,      /* J = 13 */
(PID.TID 0000.0001)                 8.874277443041928E+10,      /* J = 14 */
(PID.TID 0000.0001)                 9.008620045350865E+10,      /* J = 15 */
(PID.TID 0000.0001)                 9.076111290418457E+10,      /* J = 16 */
(PID.TID 0000.0001)                 9.076111290422060E+10,      /* J = 17 */
(PID.TID 0000.0001)                 9.008620045354469E+10,      /* J = 18 */
(PID.TID 0000.0001)                 8.874277443041928E+10,      /* J = 19 */
(PID.TID 0000.0001)                 8.674306976737517E+10,      /* J = 20 */
(PID.TID 0000.0001)                 8.410423102799828E+10,      /* J = 21 */
(PID.TID 0000.0001)                 8.084683449728902E+10,      /* J = 22 */
(PID.TID 0000.0001)                 7.699293007098555E+10,      /* J = 23 */
(PID.TID 0000.0001)                 7.256353271748119E+10,      /* J = 24 */
(PID.TID 0000.0001)                 6.757541173817516E+10,      /* J = 25 */
(PID.TID 0000.0001)                 6.203683527772523E+10,      /* J = 26 */
(PID.TID 0000.0001)                 5.594154126607553E+10,      /* J = 27 */
(PID.TID 0000.0001)                 4.925938996118163E+10,      /* J = 28 */
(PID.TID 0000.0001)                 4.192037169898667E+10,      /* J = 29 */
(PID.TID 0000.0001)                 3.378518544307869E+10,      /* J = 30 */
(PID.TID 0000.0001)                 2.459906945574446E+10,      /* J = 31 */
(PID.TID 0000.0001)                 1.401900702259215E+10       /* J = 32 */
(PID.TID 0000.0001)     ;
(PID.TID 0000.0001) rAw =  /* rAw(:,1,:,1) ( units: m^2 ) */
(PID.TID 0000.0001)                 1.216690346714270E+10,      /* I =  1 */
(PID.TID 0000.0001)                 1.974052138506315E+10,      /* I =  2 */
(PID.TID 0000.0001)                 2.943712825252015E+10,      /* I =  3 */
(PID.TID 0000.0001)      . . .
(PID.TID 0000.0001)                 8.781353403175085E+10,      /* I = 46 */
(PID.TID 0000.0001)                 8.948571540392021E+10,      /* I = 47 */
(PID.TID 0000.0001)                 9.049530583086168E+10,      /* I = 48 */
(PID.TID 0000.0001)                 9.083293515008307E+10,      /* I = 49 */
(PID.TID 0000.0001)                 9.049530583087070E+10,      /* I = 50 */
(PID.TID 0000.0001)                 8.948571540391121E+10,      /* I = 51 */
(PID.TID 0000.0001)      . . .
(PID.TID 0000.0001)                 3.801790263325260E+10,      /* I = 94 */
(PID.TID 0000.0001)                 2.943712825251114E+10,      /* I = 95 */
(PID.TID 0000.0001)                 1.974052138509018E+10,      /* I = 96 */
(PID.TID 0000.0001)                 1.216690346714270E+10,      /* I = 97 */
(PID.TID 0000.0001)                 1.974052138506315E+10,      /* I = 98 */
(PID.TID 0000.0001)                 2.943712825252015E+10,      /* I = 99 */
(PID.TID 0000.0001)      . . .
(PID.TID 0000.0001)                 8.781353403175085E+10,      /* I =142 */
(PID.TID 0000.0001)                 8.948571540392021E+10,      /* I =143 */
(PID.TID 0000.0001)                 9.049530583086168E+10,      /* I =144 */
(PID.TID 0000.0001)                 9.083293515008307E+10,      /* I =145 */
(PID.TID 0000.0001)                 9.049530583087070E+10,      /* I =146 */
(PID.TID 0000.0001)                 8.948571540391121E+10,      /* I =147 */
(PID.TID 0000.0001)      . . .
(PID.TID 0000.0001)                 3.801790263325260E+10,      /* I =190 */
(PID.TID 0000.0001)                 2.943712825251114E+10,      /* I =191 */
(PID.TID 0000.0001)                 1.974052138509018E+10       /* I =192 */
(PID.TID 0000.0001)     ;
(PID.TID 0000.0001) rAw =  /* rAw(1,:,1,:) ( units: m^2 ) */
(PID.TID 0000.0001)                 1.216690346714270E+10,      /* J =  1 */
(PID.TID 0000.0001)                 2.390126200743558E+10,      /* J =  2 */
(PID.TID 0000.0001)                 3.341968103208270E+10,      /* J =  3 */
(PID.TID 0000.0001)                 4.168532893152940E+10,      /* J =  4 */
(PID.TID 0000.0001)                 4.909074590409593E+10,      /* J =  5 */
(PID.TID 0000.0001)                 5.581203765722643E+10,      /* J =  6 */
(PID.TID 0000.0001)                 6.193257577506788E+10,      /* J =  7 */
(PID.TID 0000.0001)                 6.748840226738273E+10,      /* J =  8 */
(PID.TID 0000.0001)                 7.248875782324815E+10,      /* J =  9 */
(PID.TID 0000.0001)                 7.692702995909871E+10,      /* J = 10 */
(PID.TID 0000.0001)                 8.078743937057304E+10,      /* J = 11 */
(PID.TID 0000.0001)                 8.404959656062837E+10,      /* J = 12 */
(PID.TID 0000.0001)                 8.669186205742538E+10,      /* J = 13 */
(PID.TID 0000.0001)                 8.869393350723613E+10,      /* J = 14 */
(PID.TID 0000.0001)                 9.003884657168852E+10,      /* J = 15 */
(PID.TID 0000.0001)     2 @  9.071447638299399E+10,             /* J = 16: 17 */
(PID.TID 0000.0001)                 9.003884657168852E+10,      /* J = 18 */
(PID.TID 0000.0001)                 8.869393350723613E+10,      /* J = 19 */
(PID.TID 0000.0001)                 8.669186205742538E+10,      /* J = 20 */
(PID.TID 0000.0001)                 8.404959656062837E+10,      /* J = 21 */
(PID.TID 0000.0001)                 8.078743937057304E+10,      /* J = 22 */
(PID.TID 0000.0001)                 7.692702995909871E+10,      /* J = 23 */
(PID.TID 0000.0001)                 7.248875782324815E+10,      /* J = 24 */
(PID.TID 0000.0001)                 6.748840226738273E+10,      /* J = 25 */
(PID.TID 0000.0001)                 6.193257577506788E+10,      /* J = 26 */
(PID.TID 0000.0001)                 5.581203765722643E+10,      /* J = 27 */
(PID.TID 0000.0001)                 4.909074590409593E+10,      /* J = 28 */
(PID.TID 0000.0001)                 4.168532893152940E+10,      /* J = 29 */
(PID.TID 0000.0001)                 3.341968103208270E+10,      /* J = 30 */
(PID.TID 0000.0001)                 2.390126200743558E+10,      /* J = 31 */
(PID.TID 0000.0001)                 1.216690346714270E+10       /* J = 32 */
(PID.TID 0000.0001)     ;
(PID.TID 0000.0001) rAs =  /* rAs(:,1,:,1) ( units: m^2 ) */
(PID.TID 0000.0001)                 1.216690346714270E+10,      /* I =  1 */
(PID.TID 0000.0001)                 2.390126200743558E+10,      /* I =  2 */
(PID.TID 0000.0001)                 3.341968103208270E+10,      /* I =  3 */
(PID.TID 0000.0001)      . . .
(PID.TID 0000.0001)                 8.869393350723613E+10,      /* I = 46 */
(PID.TID 0000.0001)                 9.003884657168852E+10,      /* I = 47 */
(PID.TID 0000.0001)                 9.071447638299399E+10,      /* I = 48 */
(PID.TID 0000.0001)                 9.071447638299399E+10,      /* I = 49 */
(PID.TID 0000.0001)                 9.003884657168852E+10,      /* I = 50 */
(PID.TID 0000.0001)                 8.869393350723613E+10,      /* I = 51 */
(PID.TID 0000.0001)      . . .
(PID.TID 0000.0001)                 3.341968103208270E+10,      /* I = 94 */
(PID.TID 0000.0001)                 2.390126200743558E+10,      /* I = 95 */
(PID.TID 0000.0001)                 1.216690346714270E+10,      /* I = 96 */
(PID.TID 0000.0001)                 1.216690346714270E+10,      /* I = 97 */
(PID.TID 0000.0001)                 2.390126200743558E+10,      /* I = 98 */
(PID.TID 0000.0001)                 3.341968103208270E+10,      /* I = 99 */
(PID.TID 0000.0001)      . . .
(PID.TID 0000.0001)                 8.869393350723613E+10,      /* I =142 */
(PID.TID 0000.0001)                 9.003884657168852E+10,      /* I =143 */
(PID.TID 0000.0001)                 9.071447638299399E+10,      /* I =144 */
(PID.TID 0000.0001)                 9.071447638299399E+10,      /* I =145 */
(PID.TID 0000.0001)                 9.003884657168852E+10,      /* I =146 */
(PID.TID 0000.0001)                 8.869393350723613E+10,      /* I =147 */
(PID.TID 0000.0001)      . . .
(PID.TID 0000.0001)                 3.341968103208270E+10,      /* I =190 */
(PID.TID 0000.0001)                 2.390126200743558E+10,      /* I =191 */
(PID.TID 0000.0001)                 1.216690346714270E+10       /* I =192 */
(PID.TID 0000.0001)     ;
(PID.TID 0000.0001) rAs =  /* rAs(1,:,1,:) ( units: m^2 ) */
(PID.TID 0000.0001)                 1.216690346714270E+10,      /* J =  1 */
(PID.TID 0000.0001)                 1.974052138506315E+10,      /* J =  2 */
(PID.TID 0000.0001)                 2.943712825252015E+10,      /* J =  3 */
(PID.TID 0000.0001)                 3.801790263324359E+10,      /* J =  4 */
(PID.TID 0000.0001)                 4.571243814189866E+10,      /* J =  5 */
(PID.TID 0000.0001)                 5.269930713599979E+10,      /* J =  6 */
(PID.TID 0000.0001)                 5.907428494299063E+10,      /* J =  7 */
(PID.TID 0000.0001)                 6.488320895111514E+10,      /* J =  8 */
(PID.TID 0000.0001)                 7.014205907741882E+10,      /* J =  9 */
(PID.TID 0000.0001)                 7.484854821847499E+10,      /* J = 10 */
(PID.TID 0000.0001)                 7.898934631431560E+10,      /* J = 11 */
(PID.TID 0000.0001)                 8.254500894894537E+10,      /* J = 12 */
(PID.TID 0000.0001)                 8.549360686473492E+10,      /* J = 13 */
(PID.TID 0000.0001)                 8.781353403175085E+10,      /* J = 14 */
(PID.TID 0000.0001)                 8.948571540392021E+10,      /* J = 15 */
(PID.TID 0000.0001)                 9.049530583086168E+10,      /* J = 16 */
(PID.TID 0000.0001)                 9.083293515008307E+10,      /* J = 17 */
(PID.TID 0000.0001)                 9.049530583087070E+10,      /* J = 18 */
(PID.TID 0000.0001)                 8.948571540391121E+10,      /* J = 19 */
(PID.TID 0000.0001)                 8.781353403174185E+10,      /* J = 20 */
(PID.TID 0000.0001)                 8.549360686467184E+10,      /* J = 21 */
(PID.TID 0000.0001)                 8.254500894890933E+10,      /* J = 22 */
(PID.TID 0000.0001)                 7.898934631434262E+10,      /* J = 23 */
(PID.TID 0000.0001)                 7.484854821844795E+10,      /* J = 24 */
(PID.TID 0000.0001)                 7.014205907742783E+10,      /* J = 25 */
(PID.TID 0000.0001)                 6.488320895111514E+10,      /* J = 26 */
(PID.TID 0000.0001)                 5.907428494299063E+10,      /* J = 27 */
(PID.TID 0000.0001)                 5.269930713599078E+10,      /* J = 28 */
(PID.TID 0000.0001)                 4.571243814190767E+10,      /* J = 29 */
(PID.TID 0000.0001)                 3.801790263325260E+10,      /* J = 30 */
(PID.TID 0000.0001)                 2.943712825251114E+10,      /* J = 31 */
(PID.TID 0000.0001)                 1.974052138509018E+10       /* J = 32 */
(PID.TID 0000.0001)     ;
(PID.TID 0000.0001) globalArea = /* Integrated horizontal Area (m^2) */
(PID.TID 0000.0001)                 5.099043637817220E+14
(PID.TID 0000.0001)     ;
(PID.TID 0000.0001) hasWetCSCorners = /* Domain contains CS corners (True/False) */
(PID.TID 0000.0001)                   T
(PID.TID 0000.0001)     ;
(PID.TID 0000.0001) // =======================================================
(PID.TID 0000.0001) // End of Model config. summary
(PID.TID 0000.0001) // =======================================================
(PID.TID 0000.0001) 
(PID.TID 0000.0001) == Packages configuration : Check & print summary ==
(PID.TID 0000.0001) 
(PID.TID 0000.0001) THSICE_CHECK: #define THSICE
(PID.TID 0000.0001) GAD_CHECK: #define ALLOW_GENERIC_ADVDIFF
(PID.TID 0000.0001) // =======================================================
(PID.TID 0000.0001) // Check Model config. (CONFIG_CHECK):
(PID.TID 0000.0001) // CONFIG_CHECK : Normal End
(PID.TID 0000.0001) // =======================================================
(PID.TID 0000.0001) 
(PID.TID 0000.0001) Start initial hydrostatic pressure computation
(PID.TID 0000.0001) Pressure is predetermined for buoyancyRelation ATMOSPHERIC
(PID.TID 0000.0001) 
(PID.TID 0000.0001)  write diagnostics summary to file ioUnit:      6
Iter.Nb:         0 ; Time(s):  0.0000000000000E+00
------------------------------------------------------------------------
2D/3D diagnostics: Number of lists:     5
------------------------------------------------------------------------
listId=    1 ; file name: surfDiag
 nFlds, nActive,       freq     &     phase        , nLev               
    3  |    3  |      4500.000000         0.000000 |   1
 levels:   1
 diag# | name   |   ipt  |  iMate | kLev|   count |   mate.C|           
    23 |ETAN    |      1 |      0 |   1 |       0 |
    24 |ETANSQ  |      2 |      0 |   1 |       0 |
    25 |DETADT2 |      3 |      0 |   1 |       0 |
------------------------------------------------------------------------
listId=    2 ; file name: dynDiag
 nFlds, nActive,       freq     &     phase        , nLev               
   20  |   20  |      4500.000000         0.000000 |   5
 levels:   1   2   3   4   5
 diag# | name   |   ipt  |  iMate | kLev|   count |   mate.C|           
    29 |UVEL    |      4 |      9 |   5 |       0 |       0 |
    30 |VVEL    |      9 |      4 |   5 |       0 |       0 |
    31 |WVEL    |     14 |      0 |   5 |       0 |
    26 |THETA   |     19 |      0 |   5 |       0 |
    27 |SALT    |     24 |      0 |   5 |       0 |
    34 |UVELSQ  |     29 |     34 |   5 |       0 |       0 |
    35 |VVELSQ  |     34 |     29 |   5 |       0 |       0 |
    36 |WVELSQ  |     39 |      0 |   5 |       0 |
    32 |THETASQ |     44 |      0 |   5 |       0 |
    40 |UV_VEL_Z|     49 |     49 |   5 |       0 |       0 |
    69 |PHIHYD  |     54 |      0 |   5 |       0 |
    70 |PHIHYDSQ|     59 |      0 |   5 |       0 |
    43 |UVELMASS|     64 |     69 |   5 |       0 |       0 |
    44 |VVELMASS|     69 |     64 |   5 |       0 |       0 |
    48 |UTHMASS |     74 |     79 |   5 |       0 |       0 |
    49 |VTHMASS |     79 |     74 |   5 |       0 |       0 |
    56 |WVELTH  |     84 |      0 |   5 |       0 |
    51 |USLTMASS|     89 |     94 |   5 |       0 |       0 |
    52 |VSLTMASS|     94 |     89 |   5 |       0 |       0 |
    59 |WVELSLT |     99 |      0 |   5 |       0 |
------------------------------------------------------------------------
listId=    3 ; file name: aimDiag
 nFlds, nActive,       freq     &     phase        , nLev               
   20  |   20  |      4500.000000         0.000000 |   1
 levels:   1
 diag# | name   |   ipt  |  iMate | kLev|   count |   mate.C|           
   212 |UFLUX   |    104 |    105 |   1 |       0 |       0 |
   213 |VFLUX   |    105 |    104 |   1 |       0 |       0 |
   186 |TSR     |    106 |      0 |   1 |       0 |
   187 |OLR     |    107 |      0 |   1 |       0 |
   188 |RADSWG  |    108 |      0 |   1 |       0 |
   189 |RADLWG  |    109 |      0 |   1 |       0 |
   190 |HFLUX   |    110 |      0 |   1 |       0 |
   191 |EVAP    |    111 |      0 |   1 |       0 |
   192 |PRECON  |    112 |      0 |   1 |       0 |
   193 |PRECLS  |    113 |      0 |   1 |       0 |
   194 |CLDFRC  |    114 |      0 |   1 |       0 |
   195 |CLDPRS  |    115 |    114 |   1 |       0 |       0 |
   196 |CLDMAS  |    116 |      0 |   1 |       0 |
   197 |DRAG    |    117 |      0 |   1 |       0 |
   198 |WINDS   |    118 |      0 |   1 |       0 |
   199 |TS      |    119 |      0 |   1 |       0 |
   200 |QS      |    120 |      0 |   1 |       0 |
   201 |ENPREC  |    121 |      0 |   1 |       0 |
   202 |ALBVISDF|    122 |      0 |   1 |       0 |
   216 |DTSIMPL |    123 |      0 |   1 |       0 |
------------------------------------------------------------------------
listId=    4 ; file name: aimDDT
 nFlds, nActive,       freq     &     phase        , nLev               
    9  |    9  |      4500.000000         0.000000 |   5
 levels:   1   2   3   4   5
 diag# | name   |   ipt  |  iMate | kLev|   count |   mate.C|           
    28 |RELHUM  |    124 |      0 |   5 |       0 |
   176 |DIABT   |    129 |      0 |   5 |       0 |
   177 |DIABQ   |    134 |      0 |   5 |       0 |
   178 |RADSW   |    139 |      0 |   5 |       0 |
   179 |RADLW   |    144 |      0 |   5 |       0 |
   180 |DTCONV  |    149 |      0 |   5 |       0 |
   182 |DTLS    |    154 |      0 |   5 |       0 |
   183 |DQCONV  |    159 |      0 |   5 |       0 |
   185 |DQLS    |    164 |      0 |   5 |       0 |
------------------------------------------------------------------------
listId=    5 ; file name: thSIceDiag
 nFlds, nActive,       freq     &     phase        , nLev               
   14  |   15  |      4500.000000         0.000000 |   1
 levels:   1
 diag# | name   |   ipt  |  iMate | kLev|   count |   mate.C|           
   229 |SI_Fract|    169 |      0 |   1 |       0 |
   230 |SI_Thick|    170 |    169 |   1 |       0 |       0 |
   231 |SI_SnowH|    171 |    169 |   1 |       0 |       0 |
   232 |SI_Tsrf |    172 |    169 |   1 |       0 |       0 |
   233 |SI_Tice1|    173 |    169 |   1 |       0 |       0 |
   234 |SI_Tice2|    174 |    169 |   1 |       0 |       0 |
   235 |SI_Qice1|    175 |    170 |   1 |       0 |       0 |
   236 |SI_Qice2|    176 |    170 |   1 |       0 |       0 |
   237 |SIsnwAge|    177 |      0 |   1 |       0 |
   240 |SIsnwPrc|    178 |    179 |   1 |       0 |       0 |
   239 |SIalbedo|    180 |    179 |   1 |       0 |       0 |
   243 |SIflx2oc|    181 |      0 |   1 |       0 |
   244 |SIfrw2oc|    182 |      0 |   1 |       0 |
   245 |SIsaltFx|    183 |      0 |   1 |       0 |
   238 |SI_FrcFx|    179 |      0 |   1 |       0 |
------------------------------------------------------------------------
Global & Regional Statistics diagnostics: Number of lists:     3
------------------------------------------------------------------------
listId=   1 ; file name: dynStDiag
 nFlds, nActive,       freq     &     phase        |                    
    5  |    5  |     -3600.000000         0.000000 |
 Regions:   0
 diag# | name   |   ipt  |  iMate |    Volume   |   mate-Vol. |         
    23 |ETAN    |      1 |      0 | 0.00000E+00 |
    29 |UVEL    |      2 |      0 | 0.00000E+00 |
    30 |VVEL    |      7 |      0 | 0.00000E+00 |
    31 |WVEL    |     12 |      0 | 0.00000E+00 |
    26 |THETA   |     17 |      0 | 0.00000E+00 |
------------------------------------------------------------------------
listId=   2 ; file name: landStDiag
 nFlds, nActive,       freq     &     phase        |                    
    4  |    4  |     -3600.000000         0.000000 |
 Regions:   1  2  3
 diag# | name   |   ipt  |  iMate |    Volume   |   mate-Vol. |         
   222 |LdSnowH |     22 |      0 | 0.00000E+00 |
   218 |GrdSurfT|     23 |      0 | 0.00000E+00 |
   219 |GrdTemp |     24 |      0 | 0.00000E+00 |
   221 |GrdWater|     26 |      0 | 0.00000E+00 |
------------------------------------------------------------------------
listId=   3 ; file name: thSIceStDiag
 nFlds, nActive,       freq     &     phase        |                    
   12  |   13  |     -3600.000000         0.000000 |
 Regions:   0  1  3
 diag# | name   |   ipt  |  iMate |    Volume   |   mate-Vol. |         
   229 |SI_Fract|     28 |      0 | 0.00000E+00 |
   230 |SI_Thick|     29 |     28 | 0.00000E+00 | 0.00000E+00 |
   231 |SI_SnowH|     30 |     28 | 0.00000E+00 | 0.00000E+00 |
   232 |SI_Tsrf |     31 |     28 | 0.00000E+00 | 0.00000E+00 |
   233 |SI_Tice1|     32 |     28 | 0.00000E+00 | 0.00000E+00 |
   234 |SI_Tice2|     33 |     28 | 0.00000E+00 | 0.00000E+00 |
   240 |SIsnwPrc|     34 |     35 | 0.00000E+00 | 0.00000E+00 |
   239 |SIalbedo|     36 |     35 | 0.00000E+00 | 0.00000E+00 |
   237 |SIsnwAge|     37 |      0 | 0.00000E+00 |
   243 |SIflx2oc|     38 |      0 | 0.00000E+00 |
   244 |SIfrw2oc|     39 |      0 | 0.00000E+00 |
   245 |SIsaltFx|     40 |      0 | 0.00000E+00 |
   238 |SI_FrcFx|     35 |      0 | 0.00000E+00 |
------------------------------------------------------------------------
(PID.TID 0000.0001)  MDS_READ_FIELD: opening global file: land_grT_ini.cpl.bin
(PID.TID 0000.0001)  MDS_READ_FIELD: opening global file: land_grW_ini.mn.bin
(PID.TID 0000.0001)  MDS_READ_FIELD: opening global file: land_snw_ini.cpl.bin
(PID.TID 0000.0001) // =======================================================
(PID.TID 0000.0001) // Model current state
(PID.TID 0000.0001) // =======================================================
(PID.TID 0000.0001) 
(PID.TID 0000.0001) // =======================================================
(PID.TID 0000.0001) // Begin MONITOR dynamic field statistics
(PID.TID 0000.0001) // =======================================================
(PID.TID 0000.0001) %MON time_tsnumber                =                     0
(PID.TID 0000.0001) %MON time_secondsf                =   0.0000000000000E+00
(PID.TID 0000.0001) %MON dynstat_eta_max              =   0.0000000000000E+00
(PID.TID 0000.0001) %MON dynstat_eta_min              =   0.0000000000000E+00
(PID.TID 0000.0001) %MON dynstat_eta_mean             =   0.0000000000000E+00
(PID.TID 0000.0001) %MON dynstat_eta_sd               =   0.0000000000000E+00
(PID.TID 0000.0001) %MON dynstat_eta_del2             =   0.0000000000000E+00
(PID.TID 0000.0001) %MON dynstat_uvel_max             =   0.0000000000000E+00
(PID.TID 0000.0001) %MON dynstat_uvel_min             =   0.0000000000000E+00
(PID.TID 0000.0001) %MON dynstat_uvel_mean            =   0.0000000000000E+00
(PID.TID 0000.0001) %MON dynstat_uvel_sd              =   0.0000000000000E+00
(PID.TID 0000.0001) %MON dynstat_uvel_del2            =   0.0000000000000E+00
(PID.TID 0000.0001) %MON dynstat_vvel_max             =   0.0000000000000E+00
(PID.TID 0000.0001) %MON dynstat_vvel_min             =   0.0000000000000E+00
(PID.TID 0000.0001) %MON dynstat_vvel_mean            =   0.0000000000000E+00
(PID.TID 0000.0001) %MON dynstat_vvel_sd              =   0.0000000000000E+00
(PID.TID 0000.0001) %MON dynstat_vvel_del2            =   0.0000000000000E+00
(PID.TID 0000.0001) %MON dynstat_wvel_max             =   0.0000000000000E+00
(PID.TID 0000.0001) %MON dynstat_wvel_min             =   0.0000000000000E+00
(PID.TID 0000.0001) %MON dynstat_wvel_mean            =   0.0000000000000E+00
(PID.TID 0000.0001) %MON dynstat_wvel_sd              =   0.0000000000000E+00
(PID.TID 0000.0001) %MON dynstat_wvel_del2            =   0.0000000000000E+00
(PID.TID 0000.0001) %MON dynstat_theta_max            =   4.3740000000000E+02
(PID.TID 0000.0001) %MON dynstat_theta_min            =   2.8960000000000E+02
(PID.TID 0000.0001) %MON dynstat_theta_mean           =   3.3171566851928E+02
(PID.TID 0000.0001) %MON dynstat_theta_sd             =   4.7418367738381E+01
(PID.TID 0000.0001) %MON dynstat_theta_del2           =   0.0000000000000E+00
(PID.TID 0000.0001) %MON dynstat_salt_max             =   0.0000000000000E+00
(PID.TID 0000.0001) %MON dynstat_salt_min             =   0.0000000000000E+00
(PID.TID 0000.0001) %MON dynstat_salt_mean            =   0.0000000000000E+00
(PID.TID 0000.0001) %MON dynstat_salt_sd              =   0.0000000000000E+00
(PID.TID 0000.0001) %MON dynstat_salt_del2            =   0.0000000000000E+00
(PID.TID 0000.0001) %MON advcfl_uvel_max              =   0.0000000000000E+00
(PID.TID 0000.0001) %MON advcfl_vvel_max              =   0.0000000000000E+00
(PID.TID 0000.0001) %MON advcfl_wvel_max              =   0.0000000000000E+00
(PID.TID 0000.0001) %MON advcfl_W_hf_max              =   0.0000000000000E+00
(PID.TID 0000.0001) %MON am_eta_mean                  =   0.0000000000000E+00
(PID.TID 0000.0001) %MON am_uZo_mean                  =   0.0000000000000E+00
(PID.TID 0000.0001) %MON am_tot_mean                  =   0.0000000000000E+00
(PID.TID 0000.0001) %MON pe_b_mean                    =   0.0000000000000E+00
(PID.TID 0000.0001) %MON ke_max                       =   0.0000000000000E+00
(PID.TID 0000.0001) %MON ke_mean                      =   0.0000000000000E+00
(PID.TID 0000.0001) %MON ke_vol                       =   4.9523908919847E+19
(PID.TID 0000.0001) %MON vort_r_min                   =   0.0000000000000E+00
(PID.TID 0000.0001) %MON vort_r_max                   =   0.0000000000000E+00
(PID.TID 0000.0001) %MON vort_a_mean                  =   6.7242814765318E-08
(PID.TID 0000.0001) %MON vort_a_sd                    =   8.3936822068631E-05
(PID.TID 0000.0001) %MON vort_p_mean                  =   6.8939448519602E-08
(PID.TID 0000.0001) %MON vort_p_sd                    =   9.1626513531368E-05
(PID.TID 0000.0001) %MON surfExpan_theta_mean         =   0.0000000000000E+00
(PID.TID 0000.0001) %MON surfExpan_salt_mean          =   0.0000000000000E+00
(PID.TID 0000.0001) %MON surfExpan_Heat_mean          =   0.0000000000000E+00
(PID.TID 0000.0001) %MON En_Budget_T2PE_mean          =   0.0000000000000E+00
(PID.TID 0000.0001) // =======================================================
(PID.TID 0000.0001) // End MONITOR dynamic field statistics
(PID.TID 0000.0001) // =======================================================
(PID.TID 0000.0001) // =======================================================
(PID.TID 0000.0001) // Begin MONITOR Land statistics
(PID.TID 0000.0001) // =======================================================
(PID.TID 0000.0001) %MON land_time_sec                =   0.0000000000000E+00
(PID.TID 0000.0001) %MON land_SnwH_ave_G              =   1.5327595968918E-01
(PID.TID 0000.0001) %MON land_SnwH_ave_S              =   5.5906277570341E-01
(PID.TID 0000.0001) %MON land_SnwH_ave_T              =   2.7405468051285E-07
(PID.TID 0000.0001) %MON land_SnwH_ave_N              =   1.2399418417812E-01
(PID.TID 0000.0001) %MON land_SnwH_max_S              =   1.0000000000000E+00
(PID.TID 0000.0001) %MON land_SnwH_max_T              =   7.7654719504950E-05
(PID.TID 0000.0001) %MON land_SnwH_max_N              =   1.0000000000000E+00
(PID.TID 0000.0001) %MON land_Tsrf_ave_G              =  -2.5815959216687E+00
(PID.TID 0000.0001) %MON land_Tsrf_ave_S              =  -3.3132697963695E+00
(PID.TID 0000.0001) %MON land_Tsrf_ave_T              =   2.0149199094728E+01
(PID.TID 0000.0001) %MON land_Tsrf_ave_N              =  -1.7523201785581E+01
(PID.TID 0000.0001) %MON land_Tsrf_min_S              =  -3.8985871813098E+01
(PID.TID 0000.0001) %MON land_Tsrf_min_T              =  -8.0316451094858E+00
(PID.TID 0000.0001) %MON land_Tsrf_min_N              =  -5.5018877502675E+01
(PID.TID 0000.0001) %MON land_Tsrf_max_S              =   3.3608904510445E+01
(PID.TID 0000.0001) %MON land_Tsrf_max_T              =   3.7568273139015E+01
(PID.TID 0000.0001) %MON land_Tsrf_max_N              =   1.5686208531239E+01
(PID.TID 0000.0001) %MON land_Tgr1_ave_G              =  -2.5815959216687E+00
(PID.TID 0000.0001) %MON land_Tgr1_ave_S              =  -3.3132697963695E+00
(PID.TID 0000.0001) %MON land_Tgr1_ave_T              =   2.0149199094728E+01
(PID.TID 0000.0001) %MON land_Tgr1_ave_N              =  -1.7523201785581E+01
(PID.TID 0000.0001) %MON land_Tgr1_min_S              =  -3.8985871813098E+01
(PID.TID 0000.0001) %MON land_Tgr1_min_T              =  -8.0316451094858E+00
(PID.TID 0000.0001) %MON land_Tgr1_min_N              =  -5.5018877502675E+01
(PID.TID 0000.0001) %MON land_Tgr1_max_S              =   3.3608904510445E+01
(PID.TID 0000.0001) %MON land_Tgr1_max_T              =   3.7568273139015E+01
(PID.TID 0000.0001) %MON land_Tgr1_max_N              =   1.5686208531239E+01
(PID.TID 0000.0001) %MON land_Tgr2_ave_G              =   4.2075844789702E+00
(PID.TID 0000.0001) %MON land_Tgr2_ave_S              =  -1.8731900381715E+01
(PID.TID 0000.0001) %MON land_Tgr2_ave_T              =   2.2013117275370E+01
(PID.TID 0000.0001) %MON land_Tgr2_ave_N              =  -2.4099755438272E-01
(PID.TID 0000.0001) %MON land_Tgr2_min_S              =  -6.4762296561906E+01
(PID.TID 0000.0001) %MON land_Tgr2_min_T              =  -9.7051070040243E+00
(PID.TID 0000.0001) %MON land_Tgr2_min_N              =  -4.0193619391069E+01
(PID.TID 0000.0001) %MON land_Tgr2_max_S              =   2.3360008819708E+01
(PID.TID 0000.0001) %MON land_Tgr2_max_T              =   3.1360925912704E+01
(PID.TID 0000.0001) %MON land_Tgr2_max_N              =   2.9833038898793E+01
(PID.TID 0000.0001) %MON land_TotEnerg_G              =  -6.2318014275423E+21
(PID.TID 0000.0001) %MON land_TotEnerg_S              =  -4.9893442833974E+21
(PID.TID 0000.0001) %MON land_TotEnerg_T              =   7.3640891470528E+21
(PID.TID 0000.0001) %MON land_TotEnerg_N              =  -8.6065462911976E+21
(PID.TID 0000.0001) %MON land_grdW_ave_G              =   4.8705004606900E-01
(PID.TID 0000.0001) %MON land_grdW_ave_S              =   3.0877764965169E-01
(PID.TID 0000.0001) %MON land_grdW_ave_T              =   5.6494425086260E-01
(PID.TID 0000.0001) %MON land_grdW_ave_N              =   4.9286506610416E-01
(PID.TID 0000.0001) %MON land_grdW_min_S              =   2.5944074829007E-02
(PID.TID 0000.0001) %MON land_grdW_min_T              =   0.0000000000000E+00
(PID.TID 0000.0001) %MON land_grdW_min_N              =   0.0000000000000E+00
(PID.TID 0000.0001) // =======================================================
(PID.TID 0000.0001) // End MONITOR Land statistics
(PID.TID 0000.0001) // =======================================================
(PID.TID 0000.0001) // =======================================================
(PID.TID 0000.0001) // Begin MONITOR Therm.SeaIce statistics
(PID.TID 0000.0001) // =======================================================
(PID.TID 0000.0001) %MON thSI_time_sec                =   0.0000000000000E+00
(PID.TID 0000.0001) %MON thSI_Ice_Area_G              =   0.0000000000000E+00
(PID.TID 0000.0001) %MON thSI_Ice_Area_S              =   0.0000000000000E+00
(PID.TID 0000.0001) %MON thSI_Ice_Area_N              =   0.0000000000000E+00
(PID.TID 0000.0001) %MON thSI_IceH_ave_G              =   0.0000000000000E+00
(PID.TID 0000.0001) %MON thSI_IceH_ave_S              =   0.0000000000000E+00
(PID.TID 0000.0001) %MON thSI_IceH_ave_N              =   0.0000000000000E+00
(PID.TID 0000.0001) %MON thSI_IceH_max_S              =   0.0000000000000E+00
(PID.TID 0000.0001) %MON thSI_IceH_max_N              =   0.0000000000000E+00
(PID.TID 0000.0001) %MON thSI_SnwH_ave_G              =   0.0000000000000E+00
(PID.TID 0000.0001) %MON thSI_SnwH_ave_S              =   0.0000000000000E+00
(PID.TID 0000.0001) %MON thSI_SnwH_ave_N              =   0.0000000000000E+00
(PID.TID 0000.0001) %MON thSI_SnwH_max_S              =   0.0000000000000E+00
(PID.TID 0000.0001) %MON thSI_SnwH_max_N              =   0.0000000000000E+00
(PID.TID 0000.0001) %MON thSI_Tsrf_ave_G              =   0.0000000000000E+00
(PID.TID 0000.0001) %MON thSI_Tsrf_ave_S              =   0.0000000000000E+00
(PID.TID 0000.0001) %MON thSI_Tsrf_ave_N              =   0.0000000000000E+00
(PID.TID 0000.0001) %MON thSI_Tsrf_min_S              =   0.0000000000000E+00
(PID.TID 0000.0001) %MON thSI_Tsrf_min_N              =   0.0000000000000E+00
(PID.TID 0000.0001) %MON thSI_Tsrf_max_S              =   0.0000000000000E+00
(PID.TID 0000.0001) %MON thSI_Tsrf_max_N              =   0.0000000000000E+00
(PID.TID 0000.0001) %MON thSI_Tic1_ave_G              =   0.0000000000000E+00
(PID.TID 0000.0001) %MON thSI_Tic1_ave_S              =   0.0000000000000E+00
(PID.TID 0000.0001) %MON thSI_Tic1_ave_N              =   0.0000000000000E+00
(PID.TID 0000.0001) %MON thSI_Tic1_min_S              =   0.0000000000000E+00
(PID.TID 0000.0001) %MON thSI_Tic1_min_N              =   0.0000000000000E+00
(PID.TID 0000.0001) %MON thSI_Tic1_max_S              =   0.0000000000000E+00
(PID.TID 0000.0001) %MON thSI_Tic1_max_N              =   0.0000000000000E+00
(PID.TID 0000.0001) %MON thSI_Tic2_ave_G              =   0.0000000000000E+00
(PID.TID 0000.0001) %MON thSI_Tic2_ave_S              =   0.0000000000000E+00
(PID.TID 0000.0001) %MON thSI_Tic2_ave_N              =   0.0000000000000E+00
(PID.TID 0000.0001) %MON thSI_Tic2_min_S              =   0.0000000000000E+00
(PID.TID 0000.0001) %MON thSI_Tic2_min_N              =   0.0000000000000E+00
(PID.TID 0000.0001) %MON thSI_Tic2_max_S              =   0.0000000000000E+00
(PID.TID 0000.0001) %MON thSI_Tic2_max_N              =   0.0000000000000E+00
(PID.TID 0000.0001) %MON thSI_TotEnerg_G              =  -0.0000000000000E+00
(PID.TID 0000.0001) // =======================================================
(PID.TID 0000.0001) // End MONITOR Therm.SeaIce statistics
(PID.TID 0000.0001) // =======================================================
(PID.TID 0000.0001)  MDS_READ_FIELD: opening global file: albedo_cs32.bin
(PID.TID 0000.0001)  MDS_READ_FIELD: opening global file: vegetFrc.cpl_FM.bin
(PID.TID 0000.0001)  MDS_READ_FIELD: opening global file: seaSurfT.cpl_FM.bin
(PID.TID 0000.0001)  MDS_READ_FIELD: opening global file: seaSurfT.cpl_FM.bin
(PID.TID 0000.0001)  MDS_READ_FIELD: opening global file: lndSurfT.cpl_FM.bin
(PID.TID 0000.0001)  MDS_READ_FIELD: opening global file: lndSurfT.cpl_FM.bin
(PID.TID 0000.0001)  MDS_READ_FIELD: opening global file: seaIce.cpl3FM.bin
(PID.TID 0000.0001)  MDS_READ_FIELD: opening global file: seaIce.cpl3FM.bin
(PID.TID 0000.0001)  MDS_READ_FIELD: opening global file: snowDepth.cpl_FM.bin
(PID.TID 0000.0001)  MDS_READ_FIELD: opening global file: snowDepth.cpl_FM.bin
(PID.TID 0000.0001)  MDS_READ_FIELD: opening global file: soilMoist.cpl_FM.bin
(PID.TID 0000.0001)  MDS_READ_FIELD: opening global file: soilMoist.cpl_FM.bin
(PID.TID 0000.0001)  MDS_READ_FIELD: opening global file: soilMoist.cpl_FM.bin
(PID.TID 0000.0001)  MDS_READ_FIELD: opening global file: soilMoist.cpl_FM.bin
(PID.TID 0000.0001) SOLVE_FOR_PRESSURE: putPmEinXvector =    F
 cg2d: Sum(rhs),rhsMax =   3.97903932025656E-12  4.56406615217961E+03
(PID.TID 0000.0001)      cg2d_init_res =   2.69435642942126E+04
(PID.TID 0000.0001)      cg2d_iters(min,last) =      -1      16
(PID.TID 0000.0001)      cg2d_last_res =   1.06445831620481E-10
(PID.TID 0000.0001) // =======================================================
(PID.TID 0000.0001) // Begin MONITOR dynamic field statistics
(PID.TID 0000.0001) // =======================================================
(PID.TID 0000.0001) %MON time_tsnumber                =                     1
(PID.TID 0000.0001) %MON time_secondsf                =   4.5000000000000E+02
(PID.TID 0000.0001) %MON dynstat_eta_max              =   4.9613836014184E+02
(PID.TID 0000.0001) %MON dynstat_eta_min              =  -4.3215362210608E+02
(PID.TID 0000.0001) %MON dynstat_eta_mean             =  -5.2166645138552E-17
(PID.TID 0000.0001) %MON dynstat_eta_sd               =   4.9165804759269E+01
(PID.TID 0000.0001) %MON dynstat_eta_del2             =   1.6658806044570E+00
(PID.TID 0000.0001) %MON dynstat_uvel_max             =   3.4896271935293E+00
(PID.TID 0000.0001) %MON dynstat_uvel_min             =  -2.8043477370503E+00
(PID.TID 0000.0001) %MON dynstat_uvel_mean            =  -8.6186344161884E-04
(PID.TID 0000.0001) %MON dynstat_uvel_sd              =   2.3938982710456E-01
(PID.TID 0000.0001) %MON dynstat_uvel_del2            =   2.0412223314999E-03
(PID.TID 0000.0001) %MON dynstat_vvel_max             =   3.6044902563287E+00
(PID.TID 0000.0001) %MON dynstat_vvel_min             =  -3.8832729647589E+00
(PID.TID 0000.0001) %MON dynstat_vvel_mean            =   1.0770655299200E-03
(PID.TID 0000.0001) %MON dynstat_vvel_sd              =   2.3140373950851E-01
(PID.TID 0000.0001) %MON dynstat_vvel_del2            =   2.2311611977798E-03
(PID.TID 0000.0001) %MON dynstat_wvel_max             =   4.7528267180664E-02
(PID.TID 0000.0001) %MON dynstat_wvel_min             =  -3.2491026139051E-01
(PID.TID 0000.0001) %MON dynstat_wvel_mean            =  -1.2601788696702E-03
(PID.TID 0000.0001) %MON dynstat_wvel_sd              =   1.0323039191429E-02
(PID.TID 0000.0001) %MON dynstat_wvel_del2            =   1.1875361520015E-04
(PID.TID 0000.0001) %MON dynstat_theta_max            =   4.3742421248983E+02
(PID.TID 0000.0001) %MON dynstat_theta_min            =   2.8934445017832E+02
(PID.TID 0000.0001) %MON dynstat_theta_mean           =   3.3171681624037E+02
(PID.TID 0000.0001) %MON dynstat_theta_sd             =   4.7417090634590E+01
(PID.TID 0000.0001) %MON dynstat_theta_del2           =   1.3180407360652E-04
(PID.TID 0000.0001) %MON dynstat_salt_max             =   4.8304123513646E-01
(PID.TID 0000.0001) %MON dynstat_salt_min             =  -3.6219168150742E-03
(PID.TID 0000.0001) %MON dynstat_salt_mean            =   4.0928948583671E-03
(PID.TID 0000.0001) %MON dynstat_salt_sd              =   1.7922379086678E-02
(PID.TID 0000.0001) %MON dynstat_salt_del2            =   9.7286708695766E-05
(PID.TID 0000.0001) %MON advcfl_uvel_max              =   5.0093339770585E-03
(PID.TID 0000.0001) %MON advcfl_vvel_max              =   5.5233695889847E-03
(PID.TID 0000.0001) %MON advcfl_wvel_max              =   5.3167133682084E-03
(PID.TID 0000.0001) %MON advcfl_W_hf_max              =   6.6651407574057E-03
(PID.TID 0000.0001) %MON am_eta_mean                  =  -2.6883228832650E+07
(PID.TID 0000.0001) %MON am_uZo_mean                  =  -4.3939109938419E+06
(PID.TID 0000.0001) %MON am_tot_mean                  =  -3.1277139826492E+07
(PID.TID 0000.0001) %MON pe_b_mean                    =  -1.2347200430462E-01
(PID.TID 0000.0001) %MON ke_max                       =   6.1065189290563E+00
(PID.TID 0000.0001) %MON ke_mean                      =   5.5101768014871E-02
(PID.TID 0000.0001) %MON ke_vol                       =   4.9523908919847E+19
(PID.TID 0000.0001) %MON vort_r_min                   =  -9.4580139346488E-06
(PID.TID 0000.0001) %MON vort_r_max                   =   7.4909088464658E-06
(PID.TID 0000.0001) %MON vort_a_mean                  =   6.7242814765328E-08
(PID.TID 0000.0001) %MON vort_a_sd                    =   8.3936940089773E-05
(PID.TID 0000.0001) %MON vort_p_mean                  =   6.8939448519615E-08
(PID.TID 0000.0001) %MON vort_p_sd                    =   9.1622197174781E-05
(PID.TID 0000.0001) %MON surfExpan_theta_mean         =   1.1973499363605E-01
(PID.TID 0000.0001) %MON surfExpan_salt_mean          =   1.8171828381339E-06
(PID.TID 0000.0001) %MON surfExpan_Heat_mean          =  -9.8251682032292E+00
(PID.TID 0000.0001) %MON En_Budget_T2PE_mean          =   1.8746045001432E+01
(PID.TID 0000.0001) // =======================================================
(PID.TID 0000.0001) // End MONITOR dynamic field statistics
(PID.TID 0000.0001) // =======================================================
(PID.TID 0000.0001) // =======================================================
(PID.TID 0000.0001) // Begin MONITOR Land statistics
(PID.TID 0000.0001) // =======================================================
(PID.TID 0000.0001) %MON land_time_sec                =   4.5000000000000E+02
(PID.TID 0000.0001) %MON land_SnwH_ave_G              =   1.5324899418271E-01
(PID.TID 0000.0001) %MON land_SnwH_ave_S              =   5.5906218925101E-01
(PID.TID 0000.0001) %MON land_SnwH_ave_T              =   0.0000000000000E+00
(PID.TID 0000.0001) %MON land_SnwH_ave_N              =   1.2394083770072E-01
(PID.TID 0000.0001) %MON land_SnwH_max_S              =   9.9999994790628E-01
(PID.TID 0000.0001) %MON land_SnwH_max_T              =   0.0000000000000E+00
(PID.TID 0000.0001) %MON land_SnwH_max_N              =   9.9999994052276E-01
(PID.TID 0000.0001) %MON LAND : Area= 1.460176263E+14 ; Lat sep= -24.00  24.00
(PID.TID 0000.0001) %MON LAND : LatA= 2.377676559E+13 4.894489218E+13 7.329596851E+13
(PID.TID 0000.0001) %MON land_Tsrf_ave_G              =  -4.5018097153331E+00
(PID.TID 0000.0001) %MON land_Tsrf_ave_S              =  -4.8502891206834E+00
(PID.TID 0000.0001) %MON land_Tsrf_ave_T              =   1.8967115730433E+01
(PID.TID 0000.0001) %MON land_Tsrf_ave_N              =  -2.0060623322950E+01
(PID.TID 0000.0001) %MON land_Tsrf_min_S              =  -3.4780031503666E+01
(PID.TID 0000.0001) %MON land_Tsrf_min_T              =  -7.7790761348767E+00
(PID.TID 0000.0001) %MON land_Tsrf_min_N              =  -5.2204837440254E+01
(PID.TID 0000.0001) %MON land_Tsrf_max_S              =   3.1949330087513E+01
(PID.TID 0000.0001) %MON land_Tsrf_max_T              =   3.5750083102673E+01
(PID.TID 0000.0001) %MON land_Tsrf_max_N              =   1.5372300088674E+01
(PID.TID 0000.0001) %MON land_Tgr1_ave_G              =  -3.1124927886792E+00
(PID.TID 0000.0001) %MON land_Tgr1_ave_S              =  -3.7813957895996E+00
(PID.TID 0000.0001) %MON land_Tgr1_ave_T              =   1.8967115730433E+01
(PID.TID 0000.0001) %MON land_Tgr1_ave_N              =  -1.7639617949757E+01
(PID.TID 0000.0001) %MON land_Tgr1_min_S              =  -3.8998391445355E+01
(PID.TID 0000.0001) %MON land_Tgr1_min_T              =  -7.7790761348767E+00
(PID.TID 0000.0001) %MON land_Tgr1_min_N              =  -5.5006030742765E+01
(PID.TID 0000.0001) %MON land_Tgr1_max_S              =   3.1949330087513E+01
(PID.TID 0000.0001) %MON land_Tgr1_max_T              =   3.5750083102673E+01
(PID.TID 0000.0001) %MON land_Tgr1_max_N              =   1.5372300088674E+01
(PID.TID 0000.0001) %MON land_Tgr2_ave_G              =   4.2074719607241E+00
(PID.TID 0000.0001) %MON land_Tgr2_ave_S              =  -1.8731652795813E+01
(PID.TID 0000.0001) %MON land_Tgr2_ave_T              =   2.2013064794749E+01
(PID.TID 0000.0001) %MON land_Tgr2_ave_N              =  -2.4126697958059E-01
(PID.TID 0000.0001) %MON land_Tgr2_min_S              =  -6.4761861869106E+01
(PID.TID 0000.0001) %MON land_Tgr2_min_T              =  -9.7050826670751E+00
(PID.TID 0000.0001) %MON land_Tgr2_min_N              =  -4.0193860864683E+01
(PID.TID 0000.0001) %MON land_Tgr2_max_S              =   2.3360154776443E+01
(PID.TID 0000.0001) %MON land_Tgr2_max_T              =   3.1360681955355E+01
(PID.TID 0000.0001) %MON land_Tgr2_max_N              =   2.9832408494537E+01
(PID.TID 0000.0001) %MON land_TotEnerg_G              =  -6.2449420214312E+21
(PID.TID 0000.0001) %MON land_TotEnerg_S              =  -4.9909809342333E+21
(PID.TID 0000.0001) %MON land_TotEnerg_T              =   7.3535863970854E+21
(PID.TID 0000.0001) %MON land_TotEnerg_N              =  -8.6075474842833E+21
(PID.TID 0000.0001) %MON land_grdW_ave_G              =   4.8703721222978E-01
(PID.TID 0000.0001) %MON land_grdW_ave_S              =   3.0876199363048E-01
(PID.TID 0000.0001) %MON land_grdW_ave_T              =   5.6488813559401E-01
(PID.TID 0000.0001) %MON land_grdW_ave_N              =   4.9288204982923E-01
(PID.TID 0000.0001) %MON land_grdW_min_S              =   2.5934444940682E-02
(PID.TID 0000.0001) %MON land_grdW_min_T              =   0.0000000000000E+00
(PID.TID 0000.0001) %MON land_grdW_min_N              =   0.0000000000000E+00
(PID.TID 0000.0001) // =======================================================
(PID.TID 0000.0001) // End MONITOR Land statistics
(PID.TID 0000.0001) // =======================================================
(PID.TID 0000.0001) // =======================================================
(PID.TID 0000.0001) // Begin MONITOR Therm.SeaIce statistics
(PID.TID 0000.0001) // =======================================================
(PID.TID 0000.0001) %MON thSI_time_sec                =   4.5000000000000E+02
(PID.TID 0000.0001) %MON thSI_Ice_Area_G              =   1.0798601922970E+12
(PID.TID 0000.0001) %MON thSI_Ice_Area_S              =   6.7352377284038E+10
(PID.TID 0000.0001) %MON thSI_Ice_Area_N              =   1.0125078150129E+12
(PID.TID 0000.0001) %MON thSI_IceH_ave_G              =   1.0000000000000E-01
(PID.TID 0000.0001) %MON thSI_IceH_ave_S              =   1.0000000000000E-01
(PID.TID 0000.0001) %MON thSI_IceH_ave_N              =   1.0000000000000E-01
(PID.TID 0000.0001) %MON thSI_IceH_max_S              =   1.0000000000000E-01
(PID.TID 0000.0001) %MON thSI_IceH_max_N              =   1.0000000000000E-01
(PID.TID 0000.0001) %MON thSI_SnwH_ave_G              =   0.0000000000000E+00
(PID.TID 0000.0001) %MON thSI_SnwH_ave_S              =   0.0000000000000E+00
(PID.TID 0000.0001) %MON thSI_SnwH_ave_N              =   0.0000000000000E+00
(PID.TID 0000.0001) %MON thSI_SnwH_max_S              =   0.0000000000000E+00
(PID.TID 0000.0001) %MON thSI_SnwH_max_N              =   0.0000000000000E+00
(PID.TID 0000.0001) %MON thSI_Tsrf_ave_G              =  -1.8900000000000E+00
(PID.TID 0000.0001) %MON thSI_Tsrf_ave_S              =  -1.8900000000000E+00
(PID.TID 0000.0001) %MON thSI_Tsrf_ave_N              =  -1.8900000000000E+00
(PID.TID 0000.0001) %MON thSI_Tsrf_min_S              =  -1.8900000000000E+00
(PID.TID 0000.0001) %MON thSI_Tsrf_min_N              =  -1.8900000000000E+00
(PID.TID 0000.0001) %MON thSI_Tsrf_max_S              =  -1.8900000000000E+00
(PID.TID 0000.0001) %MON thSI_Tsrf_max_N              =  -1.8900000000000E+00
(PID.TID 0000.0001) %MON thSI_Tic1_ave_G              =  -1.8900000000000E+00
(PID.TID 0000.0001) %MON thSI_Tic1_ave_S              =  -1.8900000000000E+00
(PID.TID 0000.0001) %MON thSI_Tic1_ave_N              =  -1.8900000000000E+00
(PID.TID 0000.0001) %MON thSI_Tic1_min_S              =  -1.8900000000000E+00
(PID.TID 0000.0001) %MON thSI_Tic1_min_N              =  -1.8900000000000E+00
(PID.TID 0000.0001) %MON thSI_Tic1_max_S              =  -1.8900000000000E+00
(PID.TID 0000.0001) %MON thSI_Tic1_max_N              =  -1.8900000000000E+00
(PID.TID 0000.0001) %MON thSI_Tic2_ave_G              =  -1.8900000000000E+00
(PID.TID 0000.0001) %MON thSI_Tic2_ave_S              =  -1.8900000000000E+00
(PID.TID 0000.0001) %MON thSI_Tic2_ave_N              =  -1.8900000000000E+00
(PID.TID 0000.0001) %MON thSI_Tic2_min_S              =  -1.8900000000000E+00
(PID.TID 0000.0001) %MON thSI_Tic2_min_N              =  -1.8900000000000E+00
(PID.TID 0000.0001) %MON thSI_Tic2_max_S              =  -1.8900000000000E+00
(PID.TID 0000.0001) %MON thSI_Tic2_max_N              =  -1.8900000000000E+00
(PID.TID 0000.0001) %MON thSI_TotEnerg_G              =  -3.2388667751114E+19
(PID.TID 0000.0001) // =======================================================
(PID.TID 0000.0001) // End MONITOR Therm.SeaIce statistics
(PID.TID 0000.0001) // =======================================================
 Compute Stats, Diag. #     23  ETAN      vol(   0 ): 5.099E+14  Parms: SM      M1      
 Compute Stats, Diag. #     29  UVEL      vol(   0 ): 4.923E+19  Parms: UUR     MR      
 Compute Stats, Diag. #     30  VVEL      vol(   0 ): 4.923E+19  Parms: VVR     MR      
 Compute Stats, Diag. #     31  WVEL      vol(   0 ): 4.680E+19  Parms: WM      LR      
 Compute Stats, Diag. #     26  THETA     vol(   0 ): 4.952E+19  Parms: SMR     MR      
 Compute Stats, Diag. #    222  LdSnowH   vol(   1 ): 2.378E+13  Parms: SM P    Lg      
 Compute Stats, Diag. #    222  LdSnowH   vol(   2 ): 4.894E+13  Parms: SM P    Lg      
 Compute Stats, Diag. #    222  LdSnowH   vol(   3 ): 7.330E+13  Parms: SM P    Lg      
 Compute Stats, Diag. #    218  GrdSurfT  vol(   1 ): 2.378E+13  Parms: SM      Lg      
 Compute Stats, Diag. #    218  GrdSurfT  vol(   2 ): 4.894E+13  Parms: SM      Lg      
 Compute Stats, Diag. #    218  GrdSurfT  vol(   3 ): 7.330E+13  Parms: SM      Lg      
 Compute Stats, Diag. #    219  GrdTemp   vol(   1 ): 9.748E+13  Parms: SM      MG      
 Compute Stats, Diag. #    219  GrdTemp   vol(   2 ): 2.007E+14  Parms: SM      MG      
 Compute Stats, Diag. #    219  GrdTemp   vol(   3 ): 3.005E+14  Parms: SM      MG      
 Compute Stats, Diag. #    221  GrdWater  vol(   1 ): 9.748E+13  Parms: SM P    MG      
 Compute Stats, Diag. #    221  GrdWater  vol(   2 ): 2.007E+14  Parms: SM P    MG      
 Compute Stats, Diag. #    221  GrdWater  vol(   3 ): 3.005E+14  Parms: SM P    MG      
 Compute Stats, Diag. #    229  SI_Fract  vol(   0 ): 5.099E+14  Parms: SM P    M1      
 Compute Stats, Diag. #    229  SI_Fract  vol(   1 ): 1.526E+14  Parms: SM P    M1      
 Compute Stats, Diag. #    229  SI_Fract  vol(   3 ): 1.526E+14  Parms: SM P    M1      
 Compute Stats, Diag. #    230  SI_Thick  vol(   0 ): 0.000E+00  Parms: SM PC   M1      
    use Counter Mate  #    229  SI_Fract  vol(   0 ): 5.099E+14 integral 0.000E+00
 Compute Stats, Diag. #    230  SI_Thick  vol(   1 ): 0.000E+00  Parms: SM PC   M1      
    use Counter Mate  #    229  SI_Fract  vol(   1 ): 1.526E+14 integral 0.000E+00
 Compute Stats, Diag. #    230  SI_Thick  vol(   3 ): 0.000E+00  Parms: SM PC   M1      
    use Counter Mate  #    229  SI_Fract  vol(   3 ): 1.526E+14 integral 0.000E+00
 Compute Stats, Diag. #    231  SI_SnowH  vol(   0 ): 0.000E+00  Parms: SM PC   M1      
    use Counter Mate  #    229  SI_Fract  vol(   0 ): 5.099E+14 integral 0.000E+00
 Compute Stats, Diag. #    231  SI_SnowH  vol(   1 ): 0.000E+00  Parms: SM PC   M1      
    use Counter Mate  #    229  SI_Fract  vol(   1 ): 1.526E+14 integral 0.000E+00
 Compute Stats, Diag. #    231  SI_SnowH  vol(   3 ): 0.000E+00  Parms: SM PC   M1      
    use Counter Mate  #    229  SI_Fract  vol(   3 ): 1.526E+14 integral 0.000E+00
 Compute Stats, Diag. #    232  SI_Tsrf   vol(   0 ): 0.000E+00  Parms: SM  C   M1      
    use Counter Mate  #    229  SI_Fract  vol(   0 ): 5.099E+14 integral 0.000E+00
 Compute Stats, Diag. #    232  SI_Tsrf   vol(   1 ): 0.000E+00  Parms: SM  C   M1      
    use Counter Mate  #    229  SI_Fract  vol(   1 ): 1.526E+14 integral 0.000E+00
 Compute Stats, Diag. #    232  SI_Tsrf   vol(   3 ): 0.000E+00  Parms: SM  C   M1      
    use Counter Mate  #    229  SI_Fract  vol(   3 ): 1.526E+14 integral 0.000E+00
 Compute Stats, Diag. #    233  SI_Tice1  vol(   0 ): 0.000E+00  Parms: SM  C   M1      
    use Counter Mate  #    229  SI_Fract  vol(   0 ): 5.099E+14 integral 0.000E+00
 Compute Stats, Diag. #    233  SI_Tice1  vol(   1 ): 0.000E+00  Parms: SM  C   M1      
    use Counter Mate  #    229  SI_Fract  vol(   1 ): 1.526E+14 integral 0.000E+00
 Compute Stats, Diag. #    233  SI_Tice1  vol(   3 ): 0.000E+00  Parms: SM  C   M1      
    use Counter Mate  #    229  SI_Fract  vol(   3 ): 1.526E+14 integral 0.000E+00
 Compute Stats, Diag. #    234  SI_Tice2  vol(   0 ): 0.000E+00  Parms: SM  C   M1      
    use Counter Mate  #    229  SI_Fract  vol(   0 ): 5.099E+14 integral 0.000E+00
 Compute Stats, Diag. #    234  SI_Tice2  vol(   1 ): 0.000E+00  Parms: SM  C   M1      
    use Counter Mate  #    229  SI_Fract  vol(   1 ): 1.526E+14 integral 0.000E+00
 Compute Stats, Diag. #    234  SI_Tice2  vol(   3 ): 0.000E+00  Parms: SM  C   M1      
    use Counter Mate  #    229  SI_Fract  vol(   3 ): 1.526E+14 integral 0.000E+00
 Compute Stats, Diag. #    240  SIsnwPrc  vol(   0 ): 0.000E+00  Parms: SM  C   M1      
    use Counter Mate  #    238  SI_FrcFx  vol(   0 ): 5.099E+14 integral 0.000E+00
 Compute Stats, Diag. #    240  SIsnwPrc  vol(   1 ): 0.000E+00  Parms: SM  C   M1      
    use Counter Mate  #    238  SI_FrcFx  vol(   1 ): 1.526E+14 integral 0.000E+00
 Compute Stats, Diag. #    240  SIsnwPrc  vol(   3 ): 0.000E+00  Parms: SM  C   M1      
    use Counter Mate  #    238  SI_FrcFx  vol(   3 ): 1.526E+14 integral 0.000E+00
 Compute Stats, Diag. #    239  SIalbedo  vol(   0 ): 0.000E+00  Parms: SM PC   M1      
    use Counter Mate  #    238  SI_FrcFx  vol(   0 ): 5.099E+14 integral 0.000E+00
 Compute Stats, Diag. #    239  SIalbedo  vol(   1 ): 0.000E+00  Parms: SM PC   M1      
    use Counter Mate  #    238  SI_FrcFx  vol(   1 ): 1.526E+14 integral 0.000E+00
 Compute Stats, Diag. #    239  SIalbedo  vol(   3 ): 0.000E+00  Parms: SM PC   M1      
    use Counter Mate  #    238  SI_FrcFx  vol(   3 ): 1.526E+14 integral 0.000E+00
 Compute Stats, Diag. #    237  SIsnwAge  vol(   0 ): 5.099E+14  Parms: SM P    M1      
 Compute Stats, Diag. #    237  SIsnwAge  vol(   1 ): 1.526E+14  Parms: SM P    M1      
 Compute Stats, Diag. #    237  SIsnwAge  vol(   3 ): 1.526E+14  Parms: SM P    M1      
 Compute Stats, Diag. #    243  SIflx2oc  vol(   0 ): 5.099E+14  Parms: SM      M1      
 Compute Stats, Diag. #    243  SIflx2oc  vol(   1 ): 1.526E+14  Parms: SM      M1      
 Compute Stats, Diag. #    243  SIflx2oc  vol(   3 ): 1.526E+14  Parms: SM      M1      
 Compute Stats, Diag. #    244  SIfrw2oc  vol(   0 ): 5.099E+14  Parms: SM      M1      
 Compute Stats, Diag. #    244  SIfrw2oc  vol(   1 ): 1.526E+14  Parms: SM      M1      
 Compute Stats, Diag. #    244  SIfrw2oc  vol(   3 ): 1.526E+14  Parms: SM      M1      
 Compute Stats, Diag. #    245  SIsaltFx  vol(   0 ): 5.099E+14  Parms: SM      M1      
 Compute Stats, Diag. #    245  SIsaltFx  vol(   1 ): 1.526E+14  Parms: SM      M1      
 Compute Stats, Diag. #    245  SIsaltFx  vol(   3 ): 1.526E+14  Parms: SM      M1      
 cg2d: Sum(rhs),rhsMax =   2.25668372877408E-11  9.58183943540771E+03
(PID.TID 0000.0001)      cg2d_init_res =   3.46564904723721E+04
(PID.TID 0000.0001)      cg2d_iters(min,last) =      -1      17
(PID.TID 0000.0001)      cg2d_last_res =   1.39581593982274E-11
(PID.TID 0000.0001) // =======================================================
(PID.TID 0000.0001) // Begin MONITOR dynamic field statistics
(PID.TID 0000.0001) // =======================================================
(PID.TID 0000.0001) %MON time_tsnumber                =                     2
(PID.TID 0000.0001) %MON time_secondsf                =   9.0000000000000E+02
(PID.TID 0000.0001) %MON dynstat_eta_max              =   1.0854456759936E+03
(PID.TID 0000.0001) %MON dynstat_eta_min              =  -1.0761434613502E+03
(PID.TID 0000.0001) %MON dynstat_eta_mean             =   1.1296235939777E-16
(PID.TID 0000.0001) %MON dynstat_eta_sd               =   1.1832570866754E+02
(PID.TID 0000.0001) %MON dynstat_eta_del2             =   3.5860715750707E+00
(PID.TID 0000.0001) %MON dynstat_uvel_max             =   5.5535878745643E+00
(PID.TID 0000.0001) %MON dynstat_uvel_min             =  -4.8930304361102E+00
(PID.TID 0000.0001) %MON dynstat_uvel_mean            =  -1.7331724759616E-03
(PID.TID 0000.0001) %MON dynstat_uvel_sd              =   4.1496958839631E-01
(PID.TID 0000.0001) %MON dynstat_uvel_del2            =   2.6513022963793E-03
(PID.TID 0000.0001) %MON dynstat_vvel_max             =   5.9066644117378E+00
(PID.TID 0000.0001) %MON dynstat_vvel_min             =  -6.6447549412099E+00
(PID.TID 0000.0001) %MON dynstat_vvel_mean            =   2.2448141081676E-03
(PID.TID 0000.0001) %MON dynstat_vvel_sd              =   3.9230252081088E-01
(PID.TID 0000.0001) %MON dynstat_vvel_del2            =   2.9149299356554E-03
(PID.TID 0000.0001) %MON dynstat_wvel_max             =   6.4736743428931E-02
(PID.TID 0000.0001) %MON dynstat_wvel_min             =  -5.1936810917408E-01
(PID.TID 0000.0001) %MON dynstat_wvel_mean            =  -2.0761718919376E-03
(PID.TID 0000.0001) %MON dynstat_wvel_sd              =   1.6604253059205E-02
(PID.TID 0000.0001) %MON dynstat_wvel_del2            =   1.8054412793281E-04
(PID.TID 0000.0001) %MON dynstat_theta_max            =   4.3746516123661E+02
(PID.TID 0000.0001) %MON dynstat_theta_min            =   2.8908978548309E+02
(PID.TID 0000.0001) %MON dynstat_theta_mean           =   3.3171709670134E+02
(PID.TID 0000.0001) %MON dynstat_theta_sd             =   4.7416537988834E+01
(PID.TID 0000.0001) %MON dynstat_theta_del2           =   2.6407348255696E-04
(PID.TID 0000.0001) %MON dynstat_salt_max             =   9.1940616522771E-01
(PID.TID 0000.0001) %MON dynstat_salt_min             =  -2.9718039711155E-03
(PID.TID 0000.0001) %MON dynstat_salt_mean            =   8.1271295649477E-03
(PID.TID 0000.0001) %MON dynstat_salt_sd              =   3.5369310328458E-02
(PID.TID 0000.0001) %MON dynstat_salt_del2            =   1.8430393525066E-04
(PID.TID 0000.0001) %MON advcfl_uvel_max              =   7.9721342400759E-03
(PID.TID 0000.0001) %MON advcfl_vvel_max              =   9.4511608381908E-03
(PID.TID 0000.0001) %MON advcfl_wvel_max              =   8.4987508773940E-03
(PID.TID 0000.0001) %MON advcfl_W_hf_max              =   1.0604421371428E-02
(PID.TID 0000.0001) %MON am_eta_mean                  =  -9.9208048805708E+07
(PID.TID 0000.0001) %MON am_uZo_mean                  =   6.4523671509416E+07
(PID.TID 0000.0001) %MON am_tot_mean                  =  -3.4684377296292E+07
(PID.TID 0000.0001) %MON pe_b_mean                    =  -2.8687923408657E-01
(PID.TID 0000.0001) %MON ke_max                       =   1.6262391454334E+01
(PID.TID 0000.0001) %MON ke_mean                      =   1.6209345288032E-01
(PID.TID 0000.0001) %MON ke_vol                       =   4.9523908919847E+19
(PID.TID 0000.0001) %MON vort_r_min                   =  -1.6396697829157E-05
(PID.TID 0000.0001) %MON vort_r_max                   =   1.1040793211890E-05
(PID.TID 0000.0001) %MON vort_a_mean                  =   6.7242814765343E-08
(PID.TID 0000.0001) %MON vort_a_sd                    =   8.3937544487172E-05
(PID.TID 0000.0001) %MON vort_p_mean                  =   6.8939448374246E-08
(PID.TID 0000.0001) %MON vort_p_sd                    =   9.1637366003823E-05
(PID.TID 0000.0001) %MON surfExpan_theta_mean         =   1.9855385229973E-01
(PID.TID 0000.0001) %MON surfExpan_salt_mean          =   4.6644307308751E-06
(PID.TID 0000.0001) %MON surfExpan_Heat_mean          =  -1.6222642116461E+01
(PID.TID 0000.0001) %MON En_Budget_T2PE_mean          =   3.0989171514965E+01
(PID.TID 0000.0001) // =======================================================
(PID.TID 0000.0001) // End MONITOR dynamic field statistics
(PID.TID 0000.0001) // =======================================================
(PID.TID 0000.0001) // =======================================================
(PID.TID 0000.0001) // Begin MONITOR Land statistics
(PID.TID 0000.0001) // =======================================================
(PID.TID 0000.0001) %MON land_time_sec                =   9.0000000000000E+02
(PID.TID 0000.0001) %MON land_SnwH_ave_G              =   1.5324757260701E-01
(PID.TID 0000.0001) %MON land_SnwH_ave_S              =   5.5906150850085E-01
(PID.TID 0000.0001) %MON land_SnwH_ave_T              =   0.0000000000000E+00
(PID.TID 0000.0001) %MON land_SnwH_ave_N              =   1.2393822651928E-01
(PID.TID 0000.0001) %MON land_SnwH_max_S              =   9.9999903281816E-01
(PID.TID 0000.0001) %MON land_SnwH_max_T              =   0.0000000000000E+00
(PID.TID 0000.0001) %MON land_SnwH_max_N              =   9.9999987511301E-01
(PID.TID 0000.0001) %MON land_Tsrf_ave_G              =  -5.0690156312637E+00
(PID.TID 0000.0001) %MON land_Tsrf_ave_S              =  -5.5150284943022E+00
(PID.TID 0000.0001) %MON land_Tsrf_ave_T              =   1.7949847172697E+01
(PID.TID 0000.0001) %MON land_Tsrf_ave_N              =  -2.0295651383405E+01
(PID.TID 0000.0001) %MON land_Tsrf_min_S              =  -3.4805710679856E+01
(PID.TID 0000.0001) %MON land_Tsrf_min_T              =  -7.5293906534864E+00
(PID.TID 0000.0001) %MON land_Tsrf_min_N              =  -5.1953831525374E+01
(PID.TID 0000.0001) %MON land_Tsrf_max_S              =   3.0527721828658E+01
(PID.TID 0000.0001) %MON land_Tsrf_max_T              =   3.4125140168831E+01
(PID.TID 0000.0001) %MON land_Tsrf_max_N              =   1.4715414954900E+01
(PID.TID 0000.0001) %MON land_Tgr1_ave_G              =  -3.5647695096805E+00
(PID.TID 0000.0001) %MON land_Tgr1_ave_S              =  -4.1877920852630E+00
(PID.TID 0000.0001) %MON land_Tgr1_ave_T              =   1.7949847172697E+01
(PID.TID 0000.0001) %MON land_Tgr1_ave_N              =  -1.7729493068738E+01
(PID.TID 0000.0001) %MON land_Tgr1_min_S              =  -3.9010930086368E+01
(PID.TID 0000.0001) %MON land_Tgr1_min_T              =  -7.5293906534864E+00
(PID.TID 0000.0001) %MON land_Tgr1_min_N              =  -5.4992960798994E+01
(PID.TID 0000.0001) %MON land_Tgr1_max_S              =   3.0527721828658E+01
(PID.TID 0000.0001) %MON land_Tgr1_max_T              =   3.4125140168831E+01
(PID.TID 0000.0001) %MON land_Tgr1_max_N              =   1.4715414954900E+01
(PID.TID 0000.0001) %MON land_Tgr2_ave_G              =   4.2073557622594E+00
(PID.TID 0000.0001) %MON land_Tgr2_ave_S              =  -1.8731411666367E+01
(PID.TID 0000.0001) %MON land_Tgr2_ave_T              =   2.2012996603950E+01
(PID.TID 0000.0001) %MON land_Tgr2_ave_N              =  -2.4153115114922E-01
(PID.TID 0000.0001) %MON land_Tgr2_min_S              =  -6.4761427410112E+01
(PID.TID 0000.0001) %MON land_Tgr2_min_T              =  -9.7050551760741E+00
(PID.TID 0000.0001) %MON land_Tgr2_min_N              =  -4.0194102086178E+01
(PID.TID 0000.0001) %MON land_Tgr2_max_S              =   2.3360276086278E+01
(PID.TID 0000.0001) %MON land_Tgr2_max_T              =   3.1360419809285E+01
(PID.TID 0000.0001) %MON land_Tgr2_max_N              =   2.9832066090217E+01
(PID.TID 0000.0001) %MON land_TotEnerg_G              =  -6.2564635176999E+21
(PID.TID 0000.0001) %MON land_TotEnerg_S              =  -4.9923903987121E+21
(PID.TID 0000.0001) %MON land_TotEnerg_T              =   7.3445997214935E+21
(PID.TID 0000.0001) %MON land_TotEnerg_N              =  -8.6086728404814E+21
(PID.TID 0000.0001) %MON land_grdW_ave_G              =   4.8701737330364E-01
(PID.TID 0000.0001) %MON land_grdW_ave_S              =   3.0874743069836E-01
(PID.TID 0000.0001) %MON land_grdW_ave_T              =   5.6483651159158E-01
(PID.TID 0000.0001) %MON land_grdW_ave_N              =   4.9288172454192E-01
(PID.TID 0000.0001) %MON land_grdW_min_S              =   2.5938834770244E-02
(PID.TID 0000.0001) %MON land_grdW_min_T              =   0.0000000000000E+00
(PID.TID 0000.0001) %MON land_grdW_min_N              =   0.0000000000000E+00
(PID.TID 0000.0001) // =======================================================
(PID.TID 0000.0001) // End MONITOR Land statistics
(PID.TID 0000.0001) // =======================================================
(PID.TID 0000.0001) // =======================================================
(PID.TID 0000.0001) // Begin MONITOR Therm.SeaIce statistics
(PID.TID 0000.0001) // =======================================================
(PID.TID 0000.0001) %MON thSI_time_sec                =   9.0000000000000E+02
(PID.TID 0000.0001) %MON thSI_Ice_Area_G              =   1.1030638415530E+12
(PID.TID 0000.0001) %MON thSI_Ice_Area_S              =   6.7351901450760E+10
(PID.TID 0000.0001) %MON thSI_Ice_Area_N              =   1.0357119401022E+12
(PID.TID 0000.0001) %MON thSI_IceH_ave_G              =   1.0015867807110E-01
(PID.TID 0000.0001) %MON thSI_IceH_ave_S              =   9.9997347387962E-02
(PID.TID 0000.0001) %MON thSI_IceH_ave_N              =   1.0016916933595E-01
(PID.TID 0000.0001) %MON thSI_IceH_max_S              =   9.9997352493635E-02
(PID.TID 0000.0001) %MON thSI_IceH_max_N              =   1.0017816766687E-01
(PID.TID 0000.0001) %MON thSI_SnwH_ave_G              =   0.0000000000000E+00
(PID.TID 0000.0001) %MON thSI_SnwH_ave_S              =   0.0000000000000E+00
(PID.TID 0000.0001) %MON thSI_SnwH_ave_N              =   0.0000000000000E+00
(PID.TID 0000.0001) %MON thSI_SnwH_max_S              =   0.0000000000000E+00
(PID.TID 0000.0001) %MON thSI_SnwH_max_N              =   0.0000000000000E+00
(PID.TID 0000.0001) %MON thSI_Tsrf_ave_G              =  -4.3255478053846E+00
(PID.TID 0000.0001) %MON thSI_Tsrf_ave_S              =  -1.6688131057626E+00
(PID.TID 0000.0001) %MON thSI_Tsrf_ave_N              =  -4.4983141188174E+00
(PID.TID 0000.0001) %MON thSI_Tsrf_min_S              =  -1.6879721390148E+00
(PID.TID 0000.0001) %MON thSI_Tsrf_min_N              =  -4.5747598830698E+00
(PID.TID 0000.0001) %MON thSI_Tsrf_max_S              =  -1.6451731909479E+00
(PID.TID 0000.0001) %MON thSI_Tsrf_max_N              =  -4.1262057255507E+00
(PID.TID 0000.0001) %MON thSI_Tic1_ave_G              =  -2.1463342117862E+00
(PID.TID 0000.0001) %MON thSI_Tic1_ave_S              =  -1.8519498095042E+00
(PID.TID 0000.0001) %MON thSI_Tic1_ave_N              =  -2.1654450651827E+00
(PID.TID 0000.0001) %MON thSI_Tic1_min_S              =  -1.8538642604282E+00
(PID.TID 0000.0001) %MON thSI_Tic1_min_N              =  -2.1740175868284E+00
(PID.TID 0000.0001) %MON thSI_Tic1_max_S              =  -1.8495899717797E+00
(PID.TID 0000.0001) %MON thSI_Tic1_max_N              =  -2.1204493272580E+00
(PID.TID 0000.0001) %MON thSI_Tic2_ave_G              =  -1.9213581491955E+00
(PID.TID 0000.0001) %MON thSI_Tic2_ave_S              =  -1.8854006928620E+00
(PID.TID 0000.0001) %MON thSI_Tic2_ave_N              =  -1.9236924361725E+00
(PID.TID 0000.0001) %MON thSI_Tic2_min_S              =  -1.8856353342681E+00
(PID.TID 0000.0001) %MON thSI_Tic2_min_N              =  -1.9247395010908E+00
(PID.TID 0000.0001) %MON thSI_Tic2_max_S              =  -1.8851132641143E+00
(PID.TID 0000.0001) %MON thSI_Tic2_max_N              =  -1.9181965668592E+00
(PID.TID 0000.0001) %MON thSI_TotEnerg_G              =  -3.3223918137780E+19
(PID.TID 0000.0001) // =======================================================
(PID.TID 0000.0001) // End MONITOR Therm.SeaIce statistics
(PID.TID 0000.0001) // =======================================================
 cg2d: Sum(rhs),rhsMax =  -2.23963070311584E-11  1.30312390893094E+04
(PID.TID 0000.0001)      cg2d_init_res =   3.21720503818310E+04
(PID.TID 0000.0001)      cg2d_iters(min,last) =      -1      17
(PID.TID 0000.0001)      cg2d_last_res =   1.33101367827625E-11
(PID.TID 0000.0001) // =======================================================
(PID.TID 0000.0001) // Begin MONITOR dynamic field statistics
(PID.TID 0000.0001) // =======================================================
(PID.TID 0000.0001) %MON time_tsnumber                =                     3
(PID.TID 0000.0001) %MON time_secondsf                =   1.3500000000000E+03
(PID.TID 0000.0001) %MON dynstat_eta_max              =   1.7334834358997E+03
(PID.TID 0000.0001) %MON dynstat_eta_min              =  -1.7704124385957E+03
(PID.TID 0000.0001) %MON dynstat_eta_mean             =  -1.1672777137769E-15
(PID.TID 0000.0001) %MON dynstat_eta_sd               =   1.8804014528589E+02
(PID.TID 0000.0001) %MON dynstat_eta_del2             =   4.9926537596104E+00
(PID.TID 0000.0001) %MON dynstat_uvel_max             =   6.2738895063481E+00
(PID.TID 0000.0001) %MON dynstat_uvel_min             =  -6.2729633472652E+00
(PID.TID 0000.0001) %MON dynstat_uvel_mean            =  -2.6066514609014E-03
(PID.TID 0000.0001) %MON dynstat_uvel_sd              =   5.3880442388025E-01
(PID.TID 0000.0001) %MON dynstat_uvel_del2            =   2.4164808927694E-03
(PID.TID 0000.0001) %MON dynstat_vvel_max             =   7.0879649251559E+00
(PID.TID 0000.0001) %MON dynstat_vvel_min             =  -8.1834415774826E+00
(PID.TID 0000.0001) %MON dynstat_vvel_mean            =   3.4372540674940E-03
(PID.TID 0000.0001) %MON dynstat_vvel_sd              =   5.0069498458842E-01
(PID.TID 0000.0001) %MON dynstat_vvel_del2            =   2.6248577645082E-03
(PID.TID 0000.0001) %MON dynstat_wvel_max             =   5.8882296670452E-02
(PID.TID 0000.0001) %MON dynstat_wvel_min             =  -6.0021964978302E-01
(PID.TID 0000.0001) %MON dynstat_wvel_mean            =  -2.4820924978781E-03
(PID.TID 0000.0001) %MON dynstat_wvel_sd              =   1.9343318063408E-02
(PID.TID 0000.0001) %MON dynstat_wvel_del2            =   1.9689380610179E-04
(PID.TID 0000.0001) %MON dynstat_theta_max            =   4.3749838068167E+02
(PID.TID 0000.0001) %MON dynstat_theta_min            =   2.8883928913669E+02
(PID.TID 0000.0001) %MON dynstat_theta_mean           =   3.3171706164126E+02
(PID.TID 0000.0001) %MON dynstat_theta_sd             =   4.7416575013692E+01
(PID.TID 0000.0001) %MON dynstat_theta_del2           =   3.7776538608977E-04
(PID.TID 0000.0001) %MON dynstat_salt_max             =   1.2936346161534E+00
(PID.TID 0000.0001) %MON dynstat_salt_min             =  -2.2975516173940E-03
(PID.TID 0000.0001) %MON dynstat_salt_mean            =   1.2105800104179E-02
(PID.TID 0000.0001) %MON dynstat_salt_sd              =   5.2425800378296E-02
(PID.TID 0000.0001) %MON dynstat_salt_del2            =   2.6264777950182E-04
(PID.TID 0000.0001) %MON advcfl_uvel_max              =   9.0061218948362E-03
(PID.TID 0000.0001) %MON advcfl_vvel_max              =   1.1639710304296E-02
(PID.TID 0000.0001) %MON advcfl_wvel_max              =   9.8217760873584E-03
(PID.TID 0000.0001) %MON advcfl_W_hf_max              =   1.2252637970906E-02
(PID.TID 0000.0001) %MON am_eta_mean                  =  -2.1769143882185E+08
(PID.TID 0000.0001) %MON am_uZo_mean                  =   1.8150146228039E+08
(PID.TID 0000.0001) %MON am_tot_mean                  =  -3.6189976541463E+07
(PID.TID 0000.0001) %MON pe_b_mean                    =  -4.4128914273202E-01
(PID.TID 0000.0001) %MON ke_max                       =   2.3381085310868E+01
(PID.TID 0000.0001) %MON ke_mean                      =   2.6891773002712E-01
(PID.TID 0000.0001) %MON ke_vol                       =   4.9523908919847E+19
(PID.TID 0000.0001) %MON vort_r_min                   =  -2.0712266542244E-05
(PID.TID 0000.0001) %MON vort_r_max                   =   1.2472308597602E-05
(PID.TID 0000.0001) %MON vort_a_mean                  =   6.7242814765293E-08
(PID.TID 0000.0001) %MON vort_a_sd                    =   8.3938496509774E-05
(PID.TID 0000.0001) %MON vort_p_mean                  =   6.8939448484910E-08
(PID.TID 0000.0001) %MON vort_p_sd                    =   9.1660062575616E-05
(PID.TID 0000.0001) %MON surfExpan_theta_mean         =   2.3866990911462E-01
(PID.TID 0000.0001) %MON surfExpan_salt_mean          =   4.8866277947269E-06
(PID.TID 0000.0001) %MON surfExpan_Heat_mean          =  -1.9472957990192E+01
(PID.TID 0000.0001) %MON En_Budget_T2PE_mean          =   3.7189023033787E+01
(PID.TID 0000.0001) // =======================================================
(PID.TID 0000.0001) // End MONITOR dynamic field statistics
(PID.TID 0000.0001) // =======================================================
(PID.TID 0000.0001) // =======================================================
(PID.TID 0000.0001) // Begin MONITOR Land statistics
(PID.TID 0000.0001) // =======================================================
(PID.TID 0000.0001) %MON land_time_sec                =   1.3500000000000E+03
(PID.TID 0000.0001) %MON land_SnwH_ave_G              =   1.5324622462645E-01
(PID.TID 0000.0001) %MON land_SnwH_ave_S              =   5.5906076423878E-01
(PID.TID 0000.0001) %MON land_SnwH_ave_T              =   0.0000000000000E+00
(PID.TID 0000.0001) %MON land_SnwH_ave_N              =   1.2393578255436E-01
(PID.TID 0000.0001) %MON land_SnwH_max_S              =   9.9999852996974E-01
(PID.TID 0000.0001) %MON land_SnwH_max_T              =   0.0000000000000E+00
(PID.TID 0000.0001) %MON land_SnwH_max_N              =   9.9999980258474E-01
(PID.TID 0000.0001) %MON land_Tsrf_ave_G              =  -5.4169079358260E+00
(PID.TID 0000.0001) %MON land_Tsrf_ave_S              =  -5.7004232559482E+00
(PID.TID 0000.0001) %MON land_Tsrf_ave_T              =   1.7063878674533E+01
(PID.TID 0000.0001) %MON land_Tsrf_ave_N              =  -2.0336945443239E+01
(PID.TID 0000.0001) %MON land_Tsrf_min_S              =  -3.4749393939274E+01
(PID.TID 0000.0001) %MON land_Tsrf_min_T              =  -7.2825450215164E+00
(PID.TID 0000.0001) %MON land_Tsrf_min_N              =  -5.1354857957663E+01
(PID.TID 0000.0001) %MON land_Tsrf_max_S              =   2.9349168605553E+01
(PID.TID 0000.0001) %MON land_Tsrf_max_T              =   3.2668759500740E+01
(PID.TID 0000.0001) %MON land_Tsrf_max_N              =   1.4115246859364E+01
(PID.TID 0000.0001) %MON land_Tgr1_ave_G              =  -3.9618931142550E+00
(PID.TID 0000.0001) %MON land_Tgr1_ave_S              =  -4.5432127233430E+00
(PID.TID 0000.0001) %MON land_Tgr1_ave_T              =   1.7063878674533E+01
(PID.TID 0000.0001) %MON land_Tgr1_ave_N              =  -1.7813708618286E+01
(PID.TID 0000.0001) %MON land_Tgr1_min_S              =  -3.9023380638625E+01
(PID.TID 0000.0001) %MON land_Tgr1_min_T              =  -7.2825450215164E+00
(PID.TID 0000.0001) %MON land_Tgr1_min_N              =  -5.4979329222784E+01
(PID.TID 0000.0001) %MON land_Tgr1_max_S              =   2.9349168605553E+01
(PID.TID 0000.0001) %MON land_Tgr1_max_T              =   3.2668759500740E+01
(PID.TID 0000.0001) %MON land_Tgr1_max_N              =   1.4115246859364E+01
(PID.TID 0000.0001) %MON land_Tgr2_ave_G              =   4.2072329529880E+00
(PID.TID 0000.0001) %MON land_Tgr2_ave_S              =  -1.8731176189347E+01
(PID.TID 0000.0001) %MON land_Tgr2_ave_T              =   2.2012913789412E+01
(PID.TID 0000.0001) %MON land_Tgr2_ave_N              =  -2.4179689361742E-01
(PID.TID 0000.0001) %MON land_Tgr2_min_S              =  -6.4760993183629E+01
(PID.TID 0000.0001) %MON land_Tgr2_min_T              =  -9.7050245669484E+00
(PID.TID 0000.0001) %MON land_Tgr2_min_N              =  -4.0194343043116E+01
(PID.TID 0000.0001) %MON land_Tgr2_max_S              =   2.3360375749676E+01
(PID.TID 0000.0001) %MON land_Tgr2_max_T              =   3.1360141009627E+01
(PID.TID 0000.0001) %MON land_Tgr2_max_N              =   2.9831710362864E+01
(PID.TID 0000.0001) %MON land_TotEnerg_G              =  -6.2665607388401E+21
(PID.TID 0000.0001) %MON land_TotEnerg_S              =  -4.9936150846286E+21
(PID.TID 0000.0001) %MON land_TotEnerg_T              =   7.3368049270416E+21
(PID.TID 0000.0001) %MON land_TotEnerg_N              =  -8.6097505812532E+21
(PID.TID 0000.0001) %MON land_grdW_ave_G              =   4.8699898904895E-01
(PID.TID 0000.0001) %MON land_grdW_ave_S              =   3.0873376572000E-01
(PID.TID 0000.0001) %MON land_grdW_ave_T              =   5.6478878876071E-01
(PID.TID 0000.0001) %MON land_grdW_ave_N              =   4.9288140082110E-01
(PID.TID 0000.0001) %MON land_grdW_min_S              =   2.5955182603779E-02
(PID.TID 0000.0001) %MON land_grdW_min_T              =   0.0000000000000E+00
(PID.TID 0000.0001) %MON land_grdW_min_N              =   0.0000000000000E+00
(PID.TID 0000.0001) // =======================================================
(PID.TID 0000.0001) // End MONITOR Land statistics
(PID.TID 0000.0001) // =======================================================
(PID.TID 0000.0001) // =======================================================
(PID.TID 0000.0001) // Begin MONITOR Therm.SeaIce statistics
(PID.TID 0000.0001) // =======================================================
(PID.TID 0000.0001) %MON thSI_time_sec                =   1.3500000000000E+03
(PID.TID 0000.0001) %MON thSI_Ice_Area_G              =   1.1412134170543E+12
(PID.TID 0000.0001) %MON thSI_Ice_Area_S              =   6.7350763510729E+10
(PID.TID 0000.0001) %MON thSI_Ice_Area_N              =   1.0738626535436E+12
(PID.TID 0000.0001) %MON thSI_IceH_ave_G              =   1.0042780231696E-01
(PID.TID 0000.0001) %MON thSI_IceH_ave_S              =   9.9994676512221E-02
(PID.TID 0000.0001) %MON thSI_IceH_ave_N              =   1.0045496720025E-01
(PID.TID 0000.0001) %MON thSI_IceH_max_S              =   9.9994692323624E-02
(PID.TID 0000.0001) %MON thSI_IceH_max_N              =   1.0047241382135E-01
(PID.TID 0000.0001) %MON thSI_SnwH_ave_G              =   0.0000000000000E+00
(PID.TID 0000.0001) %MON thSI_SnwH_ave_S              =   0.0000000000000E+00
(PID.TID 0000.0001) %MON thSI_SnwH_ave_N              =   0.0000000000000E+00
(PID.TID 0000.0001) %MON thSI_SnwH_max_S              =   0.0000000000000E+00
(PID.TID 0000.0001) %MON thSI_SnwH_max_N              =   0.0000000000000E+00
(PID.TID 0000.0001) %MON thSI_Tsrf_ave_G              =  -4.5886292769705E+00
(PID.TID 0000.0001) %MON thSI_Tsrf_ave_S              =  -1.6211655813293E+00
(PID.TID 0000.0001) %MON thSI_Tsrf_ave_N              =  -4.7747433437296E+00
(PID.TID 0000.0001) %MON thSI_Tsrf_min_S              =  -1.6427965972114E+00
(PID.TID 0000.0001) %MON thSI_Tsrf_min_N              =  -4.8617358602568E+00
(PID.TID 0000.0001) %MON thSI_Tsrf_max_S              =  -1.5954927969449E+00
(PID.TID 0000.0001) %MON thSI_Tsrf_max_N              =  -4.3468506206169E+00
(PID.TID 0000.0001) %MON thSI_Tic1_ave_G              =  -2.4331386813054E+00
(PID.TID 0000.0001) %MON thSI_Tic1_ave_S              =  -1.8153620036350E+00
(PID.TID 0000.0001) %MON thSI_Tic1_ave_N              =  -2.4717070044178E+00
(PID.TID 0000.0001) %MON thSI_Tic1_min_S              =  -1.8190776089402E+00
(PID.TID 0000.0001) %MON thSI_Tic1_min_N              =  -2.4911128485968E+00
(PID.TID 0000.0001) %MON thSI_Tic1_max_S              =  -1.8108783154674E+00
(PID.TID 0000.0001) %MON thSI_Tic1_max_N              =  -2.3700590172474E+00
(PID.TID 0000.0001) %MON thSI_Tic2_ave_G              =  -1.9761252326336E+00
(PID.TID 0000.0001) %MON thSI_Tic2_ave_S              =  -1.8780175508360E+00
(PID.TID 0000.0001) %MON thSI_Tic2_ave_N              =  -1.9822501786022E+00
(PID.TID 0000.0001) %MON thSI_Tic2_min_S              =  -1.8786208642162E+00
(PID.TID 0000.0001) %MON thSI_Tic2_min_N              =  -1.9852681773900E+00
(PID.TID 0000.0001) %MON thSI_Tic2_max_S              =  -1.8772885877208E+00
(PID.TID 0000.0001) %MON thSI_Tic2_max_N              =  -1.9664705275394E+00
(PID.TID 0000.0001) %MON thSI_TotEnerg_G              =  -3.4552255362989E+19
(PID.TID 0000.0001) // =======================================================
(PID.TID 0000.0001) // End MONITOR Therm.SeaIce statistics
(PID.TID 0000.0001) // =======================================================
 cg2d: Sum(rhs),rhsMax =  -7.43511918699369E-11  1.49260628089509E+04
(PID.TID 0000.0001)      cg2d_init_res =   2.74440670376556E+04
(PID.TID 0000.0001)      cg2d_iters(min,last) =      -1      16
(PID.TID 0000.0001)      cg2d_last_res =   1.12008568958458E-10
(PID.TID 0000.0001) // =======================================================
(PID.TID 0000.0001) // Begin MONITOR dynamic field statistics
(PID.TID 0000.0001) // =======================================================
(PID.TID 0000.0001) %MON time_tsnumber                =                     4
(PID.TID 0000.0001) %MON time_secondsf                =   1.8000000000000E+03
(PID.TID 0000.0001) %MON dynstat_eta_max              =   2.5072394440124E+03
(PID.TID 0000.0001) %MON dynstat_eta_min              =  -2.3449054166499E+03
(PID.TID 0000.0001) %MON dynstat_eta_mean             =   3.1064648834386E-15
(PID.TID 0000.0001) %MON dynstat_eta_sd               =   2.4939429688330E+02
(PID.TID 0000.0001) %MON dynstat_eta_del2             =   5.6888317160760E+00
(PID.TID 0000.0001) %MON dynstat_uvel_max             =   7.1212332229814E+00
(PID.TID 0000.0001) %MON dynstat_uvel_min             =  -7.0685432247724E+00
(PID.TID 0000.0001) %MON dynstat_uvel_mean            =  -3.4526689123538E-03
(PID.TID 0000.0001) %MON dynstat_uvel_sd              =   6.2649922190960E-01
(PID.TID 0000.0001) %MON dynstat_uvel_del2            =   1.9306630558078E-03
(PID.TID 0000.0001) %MON dynstat_vvel_max             =   7.5141947336644E+00
(PID.TID 0000.0001) %MON dynstat_vvel_min             =  -8.7233585436488E+00
(PID.TID 0000.0001) %MON dynstat_vvel_mean            =   4.6855239220138E-03
(PID.TID 0000.0001) %MON dynstat_vvel_sd              =   5.7933376377761E-01
(PID.TID 0000.0001) %MON dynstat_vvel_del2            =   1.9905070869341E-03
(PID.TID 0000.0001) %MON dynstat_wvel_max             =   5.7863926864012E-02
(PID.TID 0000.0001) %MON dynstat_wvel_min             =  -6.0279439785261E-01
(PID.TID 0000.0001) %MON dynstat_wvel_mean            =  -2.5892675466082E-03
(PID.TID 0000.0001) %MON dynstat_wvel_sd              =   1.9695292088327E-02
(PID.TID 0000.0001) %MON dynstat_wvel_del2            =   1.8677308836854E-04
(PID.TID 0000.0001) %MON dynstat_theta_max            =   4.3752934223453E+02
(PID.TID 0000.0001) %MON dynstat_theta_min            =   2.8859277352537E+02
(PID.TID 0000.0001) %MON dynstat_theta_mean           =   3.3171680349685E+02
(PID.TID 0000.0001) %MON dynstat_theta_sd             =   4.7417042011670E+01
(PID.TID 0000.0001) %MON dynstat_theta_del2           =   4.6865271037567E-04
(PID.TID 0000.0001) %MON dynstat_salt_max             =   1.6273645503636E+00
(PID.TID 0000.0001) %MON dynstat_salt_min             =  -1.6291884596001E-03
(PID.TID 0000.0001) %MON dynstat_salt_mean            =   1.6035517832380E-02
(PID.TID 0000.0001) %MON dynstat_salt_sd              =   6.9110233995302E-02
(PID.TID 0000.0001) %MON dynstat_salt_del2            =   3.2984994293350E-04
(PID.TID 0000.0001) %MON advcfl_uvel_max              =   1.0101655653481E-02
(PID.TID 0000.0001) %MON advcfl_vvel_max              =   1.2407660684958E-02
(PID.TID 0000.0001) %MON advcfl_wvel_max              =   9.8639083284972E-03
(PID.TID 0000.0001) %MON advcfl_W_hf_max              =   1.2294352238815E-02
(PID.TID 0000.0001) %MON am_eta_mean                  =  -3.8256753931372E+08
(PID.TID 0000.0001) %MON am_uZo_mean                  =   3.4692860403543E+08
(PID.TID 0000.0001) %MON am_tot_mean                  =  -3.5638935278290E+07
(PID.TID 0000.0001) %MON pe_b_mean                    =  -5.7504658235980E-01
(PID.TID 0000.0001) %MON ke_max                       =   2.9088721557085E+01
(PID.TID 0000.0001) %MON ke_mean                      =   3.6193560673666E-01
(PID.TID 0000.0001) %MON ke_vol                       =   4.9523908919847E+19
(PID.TID 0000.0001) %MON vort_r_min                   =  -2.3133428255796E-05
(PID.TID 0000.0001) %MON vort_r_max                   =   1.2854347511922E-05
(PID.TID 0000.0001) %MON vort_a_mean                  =   6.7242814765237E-08
(PID.TID 0000.0001) %MON vort_a_sd                    =   8.3939797486631E-05
(PID.TID 0000.0001) %MON vort_p_mean                  =   6.8939448732156E-08
(PID.TID 0000.0001) %MON vort_p_sd                    =   9.1687986241785E-05
(PID.TID 0000.0001) %MON surfExpan_theta_mean         =   2.5003359433260E-01
(PID.TID 0000.0001) %MON surfExpan_salt_mean          =   5.9950593719020E-07
(PID.TID 0000.0001) %MON surfExpan_Heat_mean          =  -2.0426602686188E+01
(PID.TID 0000.0001) %MON En_Budget_T2PE_mean          =   3.8950337095970E+01
(PID.TID 0000.0001) // =======================================================
(PID.TID 0000.0001) // End MONITOR dynamic field statistics
(PID.TID 0000.0001) // =======================================================
(PID.TID 0000.0001) // =======================================================
(PID.TID 0000.0001) // Begin MONITOR Land statistics
(PID.TID 0000.0001) // =======================================================
(PID.TID 0000.0001) %MON land_time_sec                =   1.8000000000000E+03
(PID.TID 0000.0001) %MON land_SnwH_ave_G              =   1.5324495256963E-01
(PID.TID 0000.0001) %MON land_SnwH_ave_S              =   5.5905997141476E-01
(PID.TID 0000.0001) %MON land_SnwH_ave_T              =   0.0000000000000E+00
(PID.TID 0000.0001) %MON land_SnwH_ave_N              =   1.2393350559519E-01
(PID.TID 0000.0001) %MON land_SnwH_max_S              =   9.9999802254919E-01
(PID.TID 0000.0001) %MON land_SnwH_max_T              =   0.0000000000000E+00
(PID.TID 0000.0001) %MON land_SnwH_max_N              =   9.9999972372247E-01
(PID.TID 0000.0001) %MON land_Tsrf_ave_G              =  -5.7207741499275E+00
(PID.TID 0000.0001) %MON land_Tsrf_ave_S              =  -5.8109219211376E+00
(PID.TID 0000.0001) %MON land_Tsrf_ave_T              =   1.6284898807049E+01
(PID.TID 0000.0001) %MON land_Tsrf_ave_N              =  -2.0386271987125E+01
(PID.TID 0000.0001) %MON land_Tsrf_min_S              =  -3.4683808700883E+01
(PID.TID 0000.0001) %MON land_Tsrf_min_T              =  -7.0436047464373E+00
(PID.TID 0000.0001) %MON land_Tsrf_min_N              =  -5.0876897438235E+01
(PID.TID 0000.0001) %MON land_Tsrf_max_S              =   2.8301751931112E+01
(PID.TID 0000.0001) %MON land_Tsrf_max_T              =   3.1360409723276E+01
(PID.TID 0000.0001) %MON land_Tsrf_max_N              =   1.3561983322771E+01
(PID.TID 0000.0001) %MON land_Tgr1_ave_G              =  -4.3133449634549E+00
(PID.TID 0000.0001) %MON land_Tgr1_ave_S              =  -4.8557594815246E+00
(PID.TID 0000.0001) %MON land_Tgr1_ave_T              =   1.6284898807049E+01
(PID.TID 0000.0001) %MON land_Tgr1_ave_N              =  -1.7892290404734E+01
(PID.TID 0000.0001) %MON land_Tgr1_min_S              =  -3.9035730703638E+01
(PID.TID 0000.0001) %MON land_Tgr1_min_T              =  -7.0436047464373E+00
(PID.TID 0000.0001) %MON land_Tgr1_min_N              =  -5.4965254763912E+01
(PID.TID 0000.0001) %MON land_Tgr1_max_S              =   2.8301751931112E+01
(PID.TID 0000.0001) %MON land_Tgr1_max_T              =   3.1360409723276E+01
(PID.TID 0000.0001) %MON land_Tgr1_max_N              =   1.3561983322771E+01
(PID.TID 0000.0001) %MON land_Tgr2_ave_G              =   4.2071043202405E+00
(PID.TID 0000.0001) %MON land_Tgr2_ave_S              =  -1.8730945685452E+01
(PID.TID 0000.0001) %MON land_Tgr2_ave_T              =   2.2012818206644E+01
(PID.TID 0000.0001) %MON land_Tgr2_ave_N              =  -2.4206409790799E-01
(PID.TID 0000.0001) %MON land_Tgr2_min_S              =  -6.4760559188216E+01
(PID.TID 0000.0001) %MON land_Tgr2_min_T              =  -9.7049909390614E+00
(PID.TID 0000.0001) %MON land_Tgr2_min_N              =  -4.0194583726193E+01
(PID.TID 0000.0001) %MON land_Tgr2_max_S              =   2.3360456317793E+01
(PID.TID 0000.0001) %MON land_Tgr2_max_T              =   3.1359846955979E+01
(PID.TID 0000.0001) %MON land_Tgr2_max_N              =   2.9831342369468E+01
(PID.TID 0000.0001) %MON land_TotEnerg_G              =  -6.2755009844260E+21
(PID.TID 0000.0001) %MON land_TotEnerg_S              =  -4.9946860615918E+21
(PID.TID 0000.0001) %MON land_TotEnerg_T              =   7.3299718446397E+21
(PID.TID 0000.0001) %MON land_TotEnerg_N              =  -8.6107867674739E+21
(PID.TID 0000.0001) %MON land_grdW_ave_G              =   4.8698184429633E-01
(PID.TID 0000.0001) %MON land_grdW_ave_S              =   3.0872085447825E-01
(PID.TID 0000.0001) %MON land_grdW_ave_T              =   5.6474441173907E-01
(PID.TID 0000.0001) %MON land_grdW_ave_N              =   4.9288106765171E-01
(PID.TID 0000.0001) %MON land_grdW_min_S              =   2.5981781175982E-02
(PID.TID 0000.0001) %MON land_grdW_min_T              =   0.0000000000000E+00
(PID.TID 0000.0001) %MON land_grdW_min_N              =   0.0000000000000E+00
(PID.TID 0000.0001) // =======================================================
(PID.TID 0000.0001) // End MONITOR Land statistics
(PID.TID 0000.0001) // =======================================================
(PID.TID 0000.0001) // =======================================================
(PID.TID 0000.0001) // Begin MONITOR Therm.SeaIce statistics
(PID.TID 0000.0001) // =======================================================
(PID.TID 0000.0001) %MON thSI_time_sec                =   1.8000000000000E+03
(PID.TID 0000.0001) %MON thSI_Ice_Area_G              =   1.1784432740559E+12
(PID.TID 0000.0001) %MON thSI_Ice_Area_S              =   6.7348830006600E+10
(PID.TID 0000.0001) %MON thSI_Ice_Area_N              =   1.1110944440493E+12
(PID.TID 0000.0001) %MON thSI_IceH_ave_G              =   1.0070232511374E-01
(PID.TID 0000.0001) %MON thSI_IceH_ave_S              =   9.9991983256584E-02
(PID.TID 0000.0001) %MON thSI_IceH_ave_N              =   1.0074538238330E-01
(PID.TID 0000.0001) %MON thSI_IceH_max_S              =   9.9992019698603E-02
(PID.TID 0000.0001) %MON thSI_IceH_max_N              =   1.0077160848145E-01
(PID.TID 0000.0001) %MON thSI_SnwH_ave_G              =   0.0000000000000E+00
(PID.TID 0000.0001) %MON thSI_SnwH_ave_S              =   0.0000000000000E+00
(PID.TID 0000.0001) %MON thSI_SnwH_ave_N              =   0.0000000000000E+00
(PID.TID 0000.0001) %MON thSI_SnwH_max_S              =   0.0000000000000E+00
(PID.TID 0000.0001) %MON thSI_SnwH_max_N              =   0.0000000000000E+00
(PID.TID 0000.0001) %MON thSI_Tsrf_ave_G              =  -4.8682747241027E+00
(PID.TID 0000.0001) %MON thSI_Tsrf_ave_S              =  -1.5745426179371E+00
(PID.TID 0000.0001) %MON thSI_Tsrf_ave_N              =  -5.0679238222451E+00
(PID.TID 0000.0001) %MON thSI_Tsrf_min_S              =  -1.5982334502870E+00
(PID.TID 0000.0001) %MON thSI_Tsrf_min_N              =  -5.1669245309470E+00
(PID.TID 0000.0001) %MON thSI_Tsrf_max_S              =  -1.5472906861163E+00
(PID.TID 0000.0001) %MON thSI_Tsrf_max_N              =  -4.5787605738311E+00
(PID.TID 0000.0001) %MON thSI_Tic1_ave_G              =  -2.7413990173418E+00
(PID.TID 0000.0001) %MON thSI_Tic1_ave_S              =  -1.7800106673458E+00
(PID.TID 0000.0001) %MON thSI_Tic1_ave_N              =  -2.7992376433382E+00
(PID.TID 0000.0001) %MON thSI_Tic1_min_S              =  -1.7854003146404E+00
(PID.TID 0000.0001) %MON thSI_Tic1_min_N              =  -2.8310471822293E+00
(PID.TID 0000.0001) %MON thSI_Tic1_max_S              =  -1.7736320997363E+00
(PID.TID 0000.0001) %MON thSI_Tic1_max_N              =  -2.6335037635427E+00
(PID.TID 0000.0001) %MON thSI_Tic2_ave_G              =  -2.0480108596792E+00
(PID.TID 0000.0001) %MON thSI_Tic2_ave_S              =  -1.8690215574653E+00
(PID.TID 0000.0001) %MON thSI_Tic2_ave_N              =  -2.0587791358999E+00
(PID.TID 0000.0001) %MON thSI_Tic2_min_S              =  -1.8700629400989E+00
(PID.TID 0000.0001) %MON thSI_Tic2_min_N              =  -2.0645262953296E+00
(PID.TID 0000.0001) %MON thSI_Tic2_max_S              =  -1.8677813848880E+00
(PID.TID 0000.0001) %MON thSI_Tic2_max_N              =  -2.0288907904699E+00
(PID.TID 0000.0001) %MON thSI_TotEnerg_G              =  -3.5862178221727E+19
(PID.TID 0000.0001) // =======================================================
(PID.TID 0000.0001) // End MONITOR Therm.SeaIce statistics
(PID.TID 0000.0001) // =======================================================
 cg2d: Sum(rhs),rhsMax =  -2.41016095969826E-11  1.79887705282023E+04
(PID.TID 0000.0001)      cg2d_init_res =   2.42227546261922E+04
(PID.TID 0000.0001)      cg2d_iters(min,last) =      -1      16
(PID.TID 0000.0001)      cg2d_last_res =   9.11420422941170E-11
(PID.TID 0000.0001) // =======================================================
(PID.TID 0000.0001) // Begin MONITOR dynamic field statistics
(PID.TID 0000.0001) // =======================================================
(PID.TID 0000.0001) %MON time_tsnumber                =                     5
(PID.TID 0000.0001) %MON time_secondsf                =   2.2500000000000E+03
(PID.TID 0000.0001) %MON dynstat_eta_max              =   3.1714600084476E+03
(PID.TID 0000.0001) %MON dynstat_eta_min              =  -2.7178643673931E+03
(PID.TID 0000.0001) %MON dynstat_eta_mean             =  -6.4012003658734E-16
(PID.TID 0000.0001) %MON dynstat_eta_sd               =   3.0047140324966E+02
(PID.TID 0000.0001) %MON dynstat_eta_del2             =   5.8093637407523E+00
(PID.TID 0000.0001) %MON dynstat_uvel_max             =   7.7250856248551E+00
(PID.TID 0000.0001) %MON dynstat_uvel_min             =  -7.5704015857237E+00
(PID.TID 0000.0001) %MON dynstat_uvel_mean            =  -4.2519181664882E-03
(PID.TID 0000.0001) %MON dynstat_uvel_sd              =   6.8871442575997E-01
(PID.TID 0000.0001) %MON dynstat_uvel_del2            =   1.5494594564475E-03
(PID.TID 0000.0001) %MON dynstat_vvel_max             =   7.5419966238458E+00
(PID.TID 0000.0001) %MON dynstat_vvel_min             =  -8.6059149695664E+00
(PID.TID 0000.0001) %MON dynstat_vvel_mean            =   6.0163451950991E-03
(PID.TID 0000.0001) %MON dynstat_vvel_sd              =   6.4327850778834E-01
(PID.TID 0000.0001) %MON dynstat_vvel_del2            =   1.4575098689146E-03
(PID.TID 0000.0001) %MON dynstat_wvel_max             =   5.0714434145939E-02
(PID.TID 0000.0001) %MON dynstat_wvel_min             =  -5.6082417981413E-01
(PID.TID 0000.0001) %MON dynstat_wvel_mean            =  -2.5154791611375E-03
(PID.TID 0000.0001) %MON dynstat_wvel_sd              =   1.8776357404775E-02
(PID.TID 0000.0001) %MON dynstat_wvel_del2            =   1.6658988162929E-04
(PID.TID 0000.0001) %MON dynstat_theta_max            =   4.3754921491510E+02
(PID.TID 0000.0001) %MON dynstat_theta_min            =   2.8834913968335E+02
(PID.TID 0000.0001) %MON dynstat_theta_mean           =   3.3171635287484E+02
(PID.TID 0000.0001) %MON dynstat_theta_sd             =   4.7417822999070E+01
(PID.TID 0000.0001) %MON dynstat_theta_del2           =   5.4048054238852E-04
(PID.TID 0000.0001) %MON dynstat_salt_max             =   1.9265033999504E+00
(PID.TID 0000.0001) %MON dynstat_salt_min             =  -9.6981566329048E-04
(PID.TID 0000.0001) %MON dynstat_salt_mean            =   1.9921215263119E-02
(PID.TID 0000.0001) %MON dynstat_salt_sd              =   8.5476871392843E-02
(PID.TID 0000.0001) %MON dynstat_salt_del2            =   3.8879329568765E-04
(PID.TID 0000.0001) %MON advcfl_uvel_max              =   1.0841396559471E-02
(PID.TID 0000.0001) %MON advcfl_vvel_max              =   1.2240614929639E-02
(PID.TID 0000.0001) %MON advcfl_wvel_max              =   9.1771229424131E-03
(PID.TID 0000.0001) %MON advcfl_W_hf_max              =   1.1417608951291E-02
(PID.TID 0000.0001) %MON am_eta_mean                  =  -5.9360316511965E+08
(PID.TID 0000.0001) %MON am_uZo_mean                  =   5.6048350382910E+08
(PID.TID 0000.0001) %MON am_tot_mean                  =  -3.3119661290545E+07
(PID.TID 0000.0001) %MON pe_b_mean                    =  -6.9000141655268E-01
(PID.TID 0000.0001) %MON ke_max                       =   3.3084652393814E+01
(PID.TID 0000.0001) %MON ke_mean                      =   4.4147766589266E-01
(PID.TID 0000.0001) %MON ke_vol                       =   4.9523908919847E+19
(PID.TID 0000.0001) %MON vort_r_min                   =  -2.5040313809168E-05
(PID.TID 0000.0001) %MON vort_r_max                   =   1.2414766436875E-05
(PID.TID 0000.0001) %MON vort_a_mean                  =   6.7242814765390E-08
(PID.TID 0000.0001) %MON vort_a_sd                    =   8.3941411823702E-05
(PID.TID 0000.0001) %MON vort_p_mean                  =   6.8939448919291E-08
(PID.TID 0000.0001) %MON vort_p_sd                    =   9.1718627650228E-05
(PID.TID 0000.0001) %MON surfExpan_theta_mean         =   2.4369003249454E-01
(PID.TID 0000.0001) %MON surfExpan_salt_mean          =  -8.1589365854937E-06
(PID.TID 0000.0001) %MON surfExpan_Heat_mean          =  -1.9969951552302E+01
(PID.TID 0000.0001) %MON En_Budget_T2PE_mean          =   3.7989734640002E+01
(PID.TID 0000.0001) // =======================================================
(PID.TID 0000.0001) // End MONITOR dynamic field statistics
(PID.TID 0000.0001) // =======================================================
(PID.TID 0000.0001) // =======================================================
(PID.TID 0000.0001) // Begin MONITOR Land statistics
(PID.TID 0000.0001) // =======================================================
(PID.TID 0000.0001) %MON land_time_sec                =   2.2500000000000E+03
(PID.TID 0000.0001) %MON land_SnwH_ave_G              =   1.5324375502072E-01
(PID.TID 0000.0001) %MON land_SnwH_ave_S              =   5.5905913389463E-01
(PID.TID 0000.0001) %MON land_SnwH_ave_T              =   0.0000000000000E+00
(PID.TID 0000.0001) %MON land_SnwH_ave_N              =   1.2393139156721E-01
(PID.TID 0000.0001) %MON land_SnwH_max_S              =   9.9999750939557E-01
(PID.TID 0000.0001) %MON land_SnwH_max_T              =   0.0000000000000E+00
(PID.TID 0000.0001) %MON land_SnwH_max_N              =   9.9999964349357E-01
(PID.TID 0000.0001) %MON land_Tsrf_ave_G              =  -5.9974756192610E+00
(PID.TID 0000.0001) %MON land_Tsrf_ave_S              =  -5.9026855481290E+00
(PID.TID 0000.0001) %MON land_Tsrf_ave_T              =   1.5595884078450E+01
(PID.TID 0000.0001) %MON land_Tsrf_ave_N              =  -2.0447635497059E+01
(PID.TID 0000.0001) %MON land_Tsrf_min_S              =  -3.4606703781362E+01
(PID.TID 0000.0001) %MON land_Tsrf_min_T              =  -6.8143035992949E+00
(PID.TID 0000.0001) %MON land_Tsrf_min_N              =  -5.0772027887502E+01
(PID.TID 0000.0001) %MON land_Tsrf_max_S              =   2.7369075597640E+01
(PID.TID 0000.0001) %MON land_Tsrf_max_T              =   3.0182830943205E+01
(PID.TID 0000.0001) %MON land_Tsrf_max_N              =   1.3047766834708E+01
(PID.TID 0000.0001) %MON land_Tgr1_ave_G              =  -4.6261889966733E+00
(PID.TID 0000.0001) %MON land_Tgr1_ave_S              =  -5.1317884905104E+00
(PID.TID 0000.0001) %MON land_Tgr1_ave_T              =   1.5595884078450E+01
(PID.TID 0000.0001) %MON land_Tgr1_ave_N              =  -1.7965881280112E+01
(PID.TID 0000.0001) %MON land_Tgr1_min_S              =  -3.9047968740996E+01
(PID.TID 0000.0001) %MON land_Tgr1_min_T              =  -6.8143035992949E+00
(PID.TID 0000.0001) %MON land_Tgr1_min_N              =  -5.4951101424442E+01
(PID.TID 0000.0001) %MON land_Tgr1_max_S              =   2.7369075597640E+01
(PID.TID 0000.0001) %MON land_Tgr1_max_T              =   3.0182830943205E+01
(PID.TID 0000.0001) %MON land_Tgr1_max_N              =   1.3047766834708E+01
(PID.TID 0000.0001) %MON land_Tgr2_ave_G              =   4.2069705289363E+00
(PID.TID 0000.0001) %MON land_Tgr2_ave_S              =  -1.8730719574161E+01
(PID.TID 0000.0001) %MON land_Tgr2_ave_T              =   2.2012711410756E+01
(PID.TID 0000.0001) %MON land_Tgr2_ave_N              =  -2.4233266616646E-01
(PID.TID 0000.0001) %MON land_Tgr2_min_S              =  -6.4760125422246E+01
(PID.TID 0000.0001) %MON land_Tgr2_min_T              =  -9.7049544140604E+00
(PID.TID 0000.0001) %MON land_Tgr2_min_N              =  -4.0194824133877E+01
(PID.TID 0000.0001) %MON land_Tgr2_max_S              =   2.3360519980995E+01
(PID.TID 0000.0001) %MON land_Tgr2_max_T              =   3.1359538929113E+01
(PID.TID 0000.0001) %MON land_Tgr2_max_N              =   2.9830962988645E+01
(PID.TID 0000.0001) %MON land_TotEnerg_G              =  -6.2834717706753E+21
(PID.TID 0000.0001) %MON land_TotEnerg_S              =  -4.9956272495544E+21
(PID.TID 0000.0001) %MON land_TotEnerg_T              =   7.3239415926313E+21
(PID.TID 0000.0001) %MON land_TotEnerg_N              =  -8.6117861137522E+21
(PID.TID 0000.0001) %MON land_grdW_ave_G              =   4.8696578071181E-01
(PID.TID 0000.0001) %MON land_grdW_ave_S              =   3.0870858170000E-01
(PID.TID 0000.0001) %MON land_grdW_ave_T              =   5.6470297375513E-01
(PID.TID 0000.0001) %MON land_grdW_ave_N              =   4.9288071863042E-01
(PID.TID 0000.0001) %MON land_grdW_min_S              =   2.6017195938692E-02
(PID.TID 0000.0001) %MON land_grdW_min_T              =   0.0000000000000E+00
(PID.TID 0000.0001) %MON land_grdW_min_N              =   0.0000000000000E+00
(PID.TID 0000.0001) // =======================================================
(PID.TID 0000.0001) // End MONITOR Land statistics
(PID.TID 0000.0001) // =======================================================
(PID.TID 0000.0001) // =======================================================
(PID.TID 0000.0001) // Begin MONITOR Therm.SeaIce statistics
(PID.TID 0000.0001) // =======================================================
(PID.TID 0000.0001) %MON thSI_time_sec                =   2.2500000000000E+03
(PID.TID 0000.0001) %MON thSI_Ice_Area_G              =   1.2150419624612E+12
(PID.TID 0000.0001) %MON thSI_Ice_Area_S              =   6.7346026601046E+10
(PID.TID 0000.0001) %MON thSI_Ice_Area_N              =   1.1476959358602E+12
(PID.TID 0000.0001) %MON thSI_IceH_ave_G              =   1.0098538068881E-01
(PID.TID 0000.0001) %MON thSI_IceH_ave_S              =   9.9989262322757E-02
(PID.TID 0000.0001) %MON thSI_IceH_ave_N              =   1.0104383224543E-01
(PID.TID 0000.0001) %MON thSI_IceH_max_S              =   9.9989330800023E-02
(PID.TID 0000.0001) %MON thSI_IceH_max_N              =   1.0107907982515E-01
(PID.TID 0000.0001) %MON thSI_SnwH_ave_G              =   0.0000000000000E+00
(PID.TID 0000.0001) %MON thSI_SnwH_ave_S              =   0.0000000000000E+00
(PID.TID 0000.0001) %MON thSI_SnwH_ave_N              =   0.0000000000000E+00
(PID.TID 0000.0001) %MON thSI_SnwH_max_S              =   0.0000000000000E+00
(PID.TID 0000.0001) %MON thSI_SnwH_max_N              =   0.0000000000000E+00
(PID.TID 0000.0001) %MON thSI_Tsrf_ave_G              =  -5.1572614493923E+00
(PID.TID 0000.0001) %MON thSI_Tsrf_ave_S              =  -1.5287250322123E+00
(PID.TID 0000.0001) %MON thSI_Tsrf_ave_N              =  -5.3701815290396E+00
(PID.TID 0000.0001) %MON thSI_Tsrf_min_S              =  -1.5538386674842E+00
(PID.TID 0000.0001) %MON thSI_Tsrf_min_N              =  -5.4822462122864E+00
(PID.TID 0000.0001) %MON thSI_Tsrf_max_S              =  -1.5003141271241E+00
(PID.TID 0000.0001) %MON thSI_Tsrf_max_N              =  -4.8164451903992E+00
(PID.TID 0000.0001) %MON thSI_Tic1_ave_G              =  -3.0602964058855E+00
(PID.TID 0000.0001) %MON thSI_Tic1_ave_S              =  -1.7457258085276E+00
(PID.TID 0000.0001) %MON thSI_Tic1_ave_N              =  -3.1366294537228E+00
(PID.TID 0000.0001) %MON thSI_Tic1_min_S              =  -1.7526299416580E+00
(PID.TID 0000.0001) %MON thSI_Tic1_min_N              =  -3.1816823937515E+00
(PID.TID 0000.0001) %MON thSI_Tic1_max_S              =  -1.7376749996896E+00
(PID.TID 0000.0001) %MON thSI_Tic1_max_N              =  -2.9030219663868E+00
(PID.TID 0000.0001) %MON thSI_Tic2_ave_G              =  -2.1319449637441E+00
(PID.TID 0000.0001) %MON thSI_Tic2_ave_S              =  -1.8591339258627E+00
(PID.TID 0000.0001) %MON thSI_Tic2_ave_N              =  -2.1477862567465E+00
(PID.TID 0000.0001) %MON thSI_Tic2_min_S              =  -1.8606378566875E+00
(PID.TID 0000.0001) %MON thSI_Tic2_min_N              =  -2.1568353260096E+00
(PID.TID 0000.0001) %MON thSI_Tic2_max_S              =  -1.8573655949026E+00
(PID.TID 0000.0001) %MON thSI_Tic2_max_N              =  -2.1009674823202E+00
(PID.TID 0000.0001) %MON thSI_TotEnerg_G              =  -3.7162415971645E+19
(PID.TID 0000.0001) // =======================================================
(PID.TID 0000.0001) // End MONITOR Therm.SeaIce statistics
(PID.TID 0000.0001) // =======================================================
 cg2d: Sum(rhs),rhsMax =   2.05545802600682E-10  2.06457189369372E+04
(PID.TID 0000.0001)      cg2d_init_res =   2.25067293003205E+04
(PID.TID 0000.0001)      cg2d_iters(min,last) =      -1      16
(PID.TID 0000.0001)      cg2d_last_res =   8.37658460644577E-11
(PID.TID 0000.0001) // =======================================================
(PID.TID 0000.0001) // Begin MONITOR dynamic field statistics
(PID.TID 0000.0001) // =======================================================
(PID.TID 0000.0001) %MON time_tsnumber                =                     6
(PID.TID 0000.0001) %MON time_secondsf                =   2.7000000000000E+03
(PID.TID 0000.0001) %MON dynstat_eta_max              =   3.6543368590820E+03
(PID.TID 0000.0001) %MON dynstat_eta_min              =  -2.8737096375836E+03
(PID.TID 0000.0001) %MON dynstat_eta_mean             =  -3.4641790215315E-15
(PID.TID 0000.0001) %MON dynstat_eta_sd               =   3.4257451576223E+02
(PID.TID 0000.0001) %MON dynstat_eta_del2             =   5.5968776781310E+00
(PID.TID 0000.0001) %MON dynstat_uvel_max             =   7.8572546105818E+00
(PID.TID 0000.0001) %MON dynstat_uvel_min             =  -7.8157378668065E+00
(PID.TID 0000.0001) %MON dynstat_uvel_mean            =  -4.9982712058359E-03
(PID.TID 0000.0001) %MON dynstat_uvel_sd              =   7.3191815449523E-01
(PID.TID 0000.0001) %MON dynstat_uvel_del2            =   1.3410477324836E-03
(PID.TID 0000.0001) %MON dynstat_vvel_max             =   7.4240621215095E+00
(PID.TID 0000.0001) %MON dynstat_vvel_min             =  -8.4884147339617E+00
(PID.TID 0000.0001) %MON dynstat_vvel_mean            =   7.4419386487183E-03
(PID.TID 0000.0001) %MON dynstat_vvel_sd              =   6.9899657694399E-01
(PID.TID 0000.0001) %MON dynstat_vvel_del2            =   1.2048147983989E-03
(PID.TID 0000.0001) %MON dynstat_wvel_max             =   6.4735903149171E-02
(PID.TID 0000.0001) %MON dynstat_wvel_min             =  -4.9942823881166E-01
(PID.TID 0000.0001) %MON dynstat_wvel_mean            =  -2.3537105684751E-03
(PID.TID 0000.0001) %MON dynstat_wvel_sd              =   1.7424212945207E-02
(PID.TID 0000.0001) %MON dynstat_wvel_del2            =   1.4751754706815E-04
(PID.TID 0000.0001) %MON dynstat_theta_max            =   4.3755711314833E+02
(PID.TID 0000.0001) %MON dynstat_theta_min            =   2.8810701171553E+02
(PID.TID 0000.0001) %MON dynstat_theta_mean           =   3.3171572003140E+02
(PID.TID 0000.0001) %MON dynstat_theta_sd             =   4.7418836089535E+01
(PID.TID 0000.0001) %MON dynstat_theta_del2           =   6.0092384335546E-04
(PID.TID 0000.0001) %MON dynstat_salt_max             =   2.1956421534136E+00
(PID.TID 0000.0001) %MON dynstat_salt_min             =  -1.0183817865056E-03
(PID.TID 0000.0001) %MON dynstat_salt_mean            =   2.3766809322072E-02
(PID.TID 0000.0001) %MON dynstat_salt_sd              =   1.0156719139580E-01
(PID.TID 0000.0001) %MON dynstat_salt_del2            =   4.4136801559736E-04
(PID.TID 0000.0001) %MON advcfl_uvel_max              =   1.1192736958461E-02
(PID.TID 0000.0001) %MON advcfl_vvel_max              =   1.2039300481126E-02
(PID.TID 0000.0001) %MON advcfl_wvel_max              =   8.1724620896454E-03
(PID.TID 0000.0001) %MON advcfl_W_hf_max              =   1.2168498461612E-02
(PID.TID 0000.0001) %MON am_eta_mean                  =  -8.5009164412468E+08
(PID.TID 0000.0001) %MON am_uZo_mean                  =   8.2098601885017E+08
(PID.TID 0000.0001) %MON am_tot_mean                  =  -2.9105625274512E+07
(PID.TID 0000.0001) %MON pe_b_mean                    =  -7.8876560994176E-01
(PID.TID 0000.0001) %MON ke_max                       =   3.5176149323922E+01
(PID.TID 0000.0001) %MON ke_mean                      =   5.0917310348545E-01
(PID.TID 0000.0001) %MON ke_vol                       =   4.9523908919847E+19
(PID.TID 0000.0001) %MON vort_r_min                   =  -2.6604019200302E-05
(PID.TID 0000.0001) %MON vort_r_max                   =   1.2388049373511E-05
(PID.TID 0000.0001) %MON vort_a_mean                  =   6.7242814765296E-08
(PID.TID 0000.0001) %MON vort_a_sd                    =   8.3943276112111E-05
(PID.TID 0000.0001) %MON vort_p_mean                  =   6.8939449000147E-08
(PID.TID 0000.0001) %MON vort_p_sd                    =   9.1749553413078E-05
(PID.TID 0000.0001) %MON surfExpan_theta_mean         =   2.2856641175324E-01
(PID.TID 0000.0001) %MON surfExpan_salt_mean          =  -2.0423164526211E-05
(PID.TID 0000.0001) %MON surfExpan_Heat_mean          =  -1.8803838962732E+01
(PID.TID 0000.0001) %MON En_Budget_T2PE_mean          =   3.5675516724923E+01
(PID.TID 0000.0001) // =======================================================
(PID.TID 0000.0001) // End MONITOR dynamic field statistics
(PID.TID 0000.0001) // =======================================================
(PID.TID 0000.0001) // =======================================================
(PID.TID 0000.0001) // Begin MONITOR Land statistics
(PID.TID 0000.0001) // =======================================================
(PID.TID 0000.0001) %MON land_time_sec                =   2.7000000000000E+03
(PID.TID 0000.0001) %MON land_SnwH_ave_G              =   1.5324262873233E-01
(PID.TID 0000.0001) %MON land_SnwH_ave_S              =   5.5905825829466E-01
(PID.TID 0000.0001) %MON land_SnwH_ave_T              =   0.0000000000000E+00
(PID.TID 0000.0001) %MON land_SnwH_ave_N              =   1.2392943185475E-01
(PID.TID 0000.0001) %MON land_SnwH_max_S              =   9.9999698882052E-01
(PID.TID 0000.0001) %MON land_SnwH_max_T              =   0.0000000000000E+00
(PID.TID 0000.0001) %MON land_SnwH_max_N              =   9.9999956681422E-01
(PID.TID 0000.0001) %MON land_Tsrf_ave_G              =  -6.2509043164611E+00
(PID.TID 0000.0001) %MON land_Tsrf_ave_S              =  -5.9894252436001E+00
(PID.TID 0000.0001) %MON land_Tsrf_ave_T              =   1.4983925391935E+01
(PID.TID 0000.0001) %MON land_Tsrf_ave_N              =  -2.0515721308090E+01
(PID.TID 0000.0001) %MON land_Tsrf_min_S              =  -3.4513750128678E+01
(PID.TID 0000.0001) %MON land_Tsrf_min_T              =  -6.5941587205856E+00
(PID.TID 0000.0001) %MON land_Tsrf_min_N              =  -5.1005779862440E+01
(PID.TID 0000.0001) %MON land_Tsrf_max_S              =   2.6537325015723E+01
(PID.TID 0000.0001) %MON land_Tsrf_max_T              =   2.9121440605906E+01
(PID.TID 0000.0001) %MON land_Tsrf_max_N              =   1.2566214871961E+01
(PID.TID 0000.0001) %MON land_Tgr1_ave_G              =  -4.9059516340554E+00
(PID.TID 0000.0001) %MON land_Tgr1_ave_S              =  -5.3762841991637E+00
(PID.TID 0000.0001) %MON land_Tgr1_ave_T              =   1.4983925391935E+01
(PID.TID 0000.0001) %MON land_Tgr1_ave_N              =  -1.8035253542397E+01
(PID.TID 0000.0001) %MON land_Tgr1_min_S              =  -3.9060081893164E+01
(PID.TID 0000.0001) %MON land_Tgr1_min_T              =  -6.5941587205856E+00
(PID.TID 0000.0001) %MON land_Tgr1_min_N              =  -5.4937199047360E+01
(PID.TID 0000.0001) %MON land_Tgr1_max_S              =   2.6537325015723E+01
(PID.TID 0000.0001) %MON land_Tgr1_max_T              =   2.9121440605906E+01
(PID.TID 0000.0001) %MON land_Tgr1_max_N              =   1.2566214871961E+01
(PID.TID 0000.0001) %MON land_Tgr2_ave_G              =   4.2068321492442E+00
(PID.TID 0000.0001) %MON land_Tgr2_ave_S              =  -1.8730497353857E+01
(PID.TID 0000.0001) %MON land_Tgr2_ave_T              =   2.2012594735636E+01
(PID.TID 0000.0001) %MON land_Tgr2_ave_N              =  -2.4260251597498E-01
(PID.TID 0000.0001) %MON land_Tgr2_min_S              =  -6.4759691883840E+01
(PID.TID 0000.0001) %MON land_Tgr2_min_T              =  -9.7049151077205E+00
(PID.TID 0000.0001) %MON land_Tgr2_min_N              =  -4.0195064271570E+01
(PID.TID 0000.0001) %MON land_Tgr2_max_S              =   2.3360568634949E+01
(PID.TID 0000.0001) %MON land_Tgr2_max_T              =   3.1359218192492E+01
(PID.TID 0000.0001) %MON land_Tgr2_max_N              =   2.9830572954314E+01
(PID.TID 0000.0001) %MON land_TotEnerg_G              =  -6.2906137337915E+21
(PID.TID 0000.0001) %MON land_TotEnerg_S              =  -4.9964570862750E+21
(PID.TID 0000.0001) %MON land_TotEnerg_T              =   7.3185954117542E+21
(PID.TID 0000.0001) %MON land_TotEnerg_N              =  -8.6127520592707E+21
(PID.TID 0000.0001) %MON land_grdW_ave_G              =   4.8695067310048E-01
(PID.TID 0000.0001) %MON land_grdW_ave_S              =   3.0869686004848E-01
(PID.TID 0000.0001) %MON land_grdW_ave_T              =   5.6466414783923E-01
(PID.TID 0000.0001) %MON land_grdW_ave_N              =   4.9288035102061E-01
(PID.TID 0000.0001) %MON land_grdW_min_S              =   2.6060219518158E-02
(PID.TID 0000.0001) %MON land_grdW_min_T              =   0.0000000000000E+00
(PID.TID 0000.0001) %MON land_grdW_min_N              =   0.0000000000000E+00
(PID.TID 0000.0001) // =======================================================
(PID.TID 0000.0001) // End MONITOR Land statistics
(PID.TID 0000.0001) // =======================================================
(PID.TID 0000.0001) // =======================================================
(PID.TID 0000.0001) // Begin MONITOR Therm.SeaIce statistics
(PID.TID 0000.0001) // =======================================================
(PID.TID 0000.0001) %MON thSI_time_sec                =   2.7000000000000E+03
(PID.TID 0000.0001) %MON thSI_Ice_Area_G              =   1.2510215403007E+12
(PID.TID 0000.0001) %MON thSI_Ice_Area_S              =   6.7342315133891E+10
(PID.TID 0000.0001) %MON thSI_Ice_Area_N              =   1.1836792251668E+12
(PID.TID 0000.0001) %MON thSI_IceH_ave_G              =   1.0127770396493E-01
(PID.TID 0000.0001) %MON thSI_IceH_ave_S              =   9.9986507118780E-02
(PID.TID 0000.0001) %MON thSI_IceH_ave_N              =   1.0135116321222E-01
(PID.TID 0000.0001) %MON thSI_IceH_max_S              =   9.9986633933645E-02
(PID.TID 0000.0001) %MON thSI_IceH_max_N              =   1.0139563036244E-01
(PID.TID 0000.0001) %MON thSI_SnwH_ave_G              =   0.0000000000000E+00
(PID.TID 0000.0001) %MON thSI_SnwH_ave_S              =   0.0000000000000E+00
(PID.TID 0000.0001) %MON thSI_SnwH_ave_N              =   0.0000000000000E+00
(PID.TID 0000.0001) %MON thSI_SnwH_max_S              =   0.0000000000000E+00
(PID.TID 0000.0001) %MON thSI_SnwH_max_N              =   0.0000000000000E+00
(PID.TID 0000.0001) %MON thSI_Tsrf_ave_G              =  -5.4470346196733E+00
(PID.TID 0000.0001) %MON thSI_Tsrf_ave_S              =  -1.4835261319210E+00
(PID.TID 0000.0001) %MON thSI_Tsrf_ave_N              =  -5.6725280066848E+00
(PID.TID 0000.0001) %MON thSI_Tsrf_min_S              =  -1.5095866067526E+00
(PID.TID 0000.0001) %MON thSI_Tsrf_min_N              =  -5.7978880197769E+00
(PID.TID 0000.0001) %MON thSI_Tsrf_max_S              =  -1.4544847584676E+00
(PID.TID 0000.0001) %MON thSI_Tsrf_max_N              =  -5.0541867290221E+00
(PID.TID 0000.0001) %MON thSI_Tic1_ave_G              =  -3.3803217427873E+00
(PID.TID 0000.0001) %MON thSI_Tic1_ave_S              =  -1.7123753254699E+00
(PID.TID 0000.0001) %MON thSI_Tic1_ave_N              =  -3.4739374606641E+00
(PID.TID 0000.0001) %MON thSI_Tic1_min_S              =  -1.7206219859311E+00
(PID.TID 0000.0001) %MON thSI_Tic1_min_N              =  -3.5323355441961E+00
(PID.TID 0000.0001) %MON thSI_Tic1_max_S              =  -1.7028801208365E+00
(PID.TID 0000.0001) %MON thSI_Tic1_max_N              =  -3.1723353286149E+00
(PID.TID 0000.0001) %MON thSI_Tic2_ave_G              =  -2.2235450133033E+00
(PID.TID 0000.0001) %MON thSI_Tic2_ave_S              =  -1.8487954969523E+00
(PID.TID 0000.0001) %MON thSI_Tic2_ave_N              =  -2.2445783298613E+00
(PID.TID 0000.0001) %MON thSI_Tic2_min_S              =  -1.8507564771966E+00
(PID.TID 0000.0001) %MON thSI_Tic2_min_N              =  -2.2572966071119E+00
(PID.TID 0000.0001) %MON thSI_Tic2_max_S              =  -1.8465161044777E+00
(PID.TID 0000.0001) %MON thSI_Tic2_max_N              =  -2.1790713616435E+00
(PID.TID 0000.0001) %MON thSI_TotEnerg_G              =  -3.8452787377434E+19
(PID.TID 0000.0001) // =======================================================
(PID.TID 0000.0001) // End MONITOR Therm.SeaIce statistics
(PID.TID 0000.0001) // =======================================================
 cg2d: Sum(rhs),rhsMax =   1.19598553283140E-10  2.21091929773683E+04
(PID.TID 0000.0001)      cg2d_init_res =   2.13607394599445E+04
(PID.TID 0000.0001)      cg2d_iters(min,last) =      -1      16
(PID.TID 0000.0001)      cg2d_last_res =   7.62377784009040E-11
(PID.TID 0000.0001) // =======================================================
(PID.TID 0000.0001) // Begin MONITOR dynamic field statistics
(PID.TID 0000.0001) // =======================================================
(PID.TID 0000.0001) %MON time_tsnumber                =                     7
(PID.TID 0000.0001) %MON time_secondsf                =   3.1500000000000E+03
(PID.TID 0000.0001) %MON dynstat_eta_max              =   3.9354881011568E+03
(PID.TID 0000.0001) %MON dynstat_eta_min              =  -2.8400270769904E+03
(PID.TID 0000.0001) %MON dynstat_eta_mean             =   4.0917476848524E-15
(PID.TID 0000.0001) %MON dynstat_eta_sd               =   3.7782784044443E+02
(PID.TID 0000.0001) %MON dynstat_eta_del2             =   5.2657212099287E+00
(PID.TID 0000.0001) %MON dynstat_uvel_max             =   7.6448420344789E+00
(PID.TID 0000.0001) %MON dynstat_uvel_min             =  -7.9901284742198E+00
(PID.TID 0000.0001) %MON dynstat_uvel_mean            =  -5.6968284669045E-03
(PID.TID 0000.0001) %MON dynstat_uvel_sd              =   7.6043766379294E-01
(PID.TID 0000.0001) %MON dynstat_uvel_del2            =   1.2286932229266E-03
(PID.TID 0000.0001) %MON dynstat_vvel_max             =   7.3979907042340E+00
(PID.TID 0000.0001) %MON dynstat_vvel_min             =  -8.6805169701673E+00
(PID.TID 0000.0001) %MON dynstat_vvel_mean            =   8.9593505926422E-03
(PID.TID 0000.0001) %MON dynstat_vvel_sd              =   7.4764471840143E-01
(PID.TID 0000.0001) %MON dynstat_vvel_del2            =   1.1585029870628E-03
(PID.TID 0000.0001) %MON dynstat_wvel_max             =   7.1201281928214E-02
(PID.TID 0000.0001) %MON dynstat_wvel_min             =  -4.3376648588819E-01
(PID.TID 0000.0001) %MON dynstat_wvel_mean            =  -2.1628766775938E-03
(PID.TID 0000.0001) %MON dynstat_wvel_sd              =   1.6129792247968E-02
(PID.TID 0000.0001) %MON dynstat_wvel_del2            =   1.3481851893024E-04
(PID.TID 0000.0001) %MON dynstat_theta_max            =   4.3755500883703E+02
(PID.TID 0000.0001) %MON dynstat_theta_min            =   2.8786520744735E+02
(PID.TID 0000.0001) %MON dynstat_theta_mean           =   3.3171491663444E+02
(PID.TID 0000.0001) %MON dynstat_theta_sd             =   4.7420023821876E+01
(PID.TID 0000.0001) %MON dynstat_theta_del2           =   6.5811193588692E-04
(PID.TID 0000.0001) %MON dynstat_salt_max             =   2.4385118724798E+00
(PID.TID 0000.0001) %MON dynstat_salt_min             =  -1.1558736811881E-03
(PID.TID 0000.0001) %MON dynstat_salt_mean            =   2.7576008191870E-02
(PID.TID 0000.0001) %MON dynstat_salt_sd              =   1.1742251091659E-01
(PID.TID 0000.0001) %MON dynstat_salt_del2            =   4.8889294743002E-04
(PID.TID 0000.0001) %MON advcfl_uvel_max              =   1.1364751596679E-02
(PID.TID 0000.0001) %MON advcfl_vvel_max              =   1.2311763198520E-02
(PID.TID 0000.0001) %MON advcfl_wvel_max              =   7.0979970418068E-03
(PID.TID 0000.0001) %MON advcfl_W_hf_max              =   1.2509240344619E-02
(PID.TID 0000.0001) %MON am_eta_mean                  =  -1.1509081871868E+09
(PID.TID 0000.0001) %MON am_uZo_mean                  =   1.1266266585744E+09
(PID.TID 0000.0001) %MON am_tot_mean                  =  -2.4281528612433E+07
(PID.TID 0000.0001) %MON pe_b_mean                    =  -8.7236076550274E-01
(PID.TID 0000.0001) %MON ke_max                       =   3.5746195950588E+01
(PID.TID 0000.0001) %MON ke_mean                      =   5.6532644314570E-01
(PID.TID 0000.0001) %MON ke_vol                       =   4.9523908919847E+19
(PID.TID 0000.0001) %MON vort_r_min                   =  -2.7356858814285E-05
(PID.TID 0000.0001) %MON vort_r_max                   =   1.5638988773422E-05
(PID.TID 0000.0001) %MON vort_a_mean                  =   6.7242814765308E-08
(PID.TID 0000.0001) %MON vort_a_sd                    =   8.3945328665952E-05
(PID.TID 0000.0001) %MON vort_p_mean                  =   6.8939449063486E-08
(PID.TID 0000.0001) %MON vort_p_sd                    =   9.1778882154130E-05
(PID.TID 0000.0001) %MON surfExpan_theta_mean         =   2.1038813195089E-01
(PID.TID 0000.0001) %MON surfExpan_salt_mean          =  -3.5317189967635E-05
(PID.TID 0000.0001) %MON surfExpan_Heat_mean          =  -1.7378866579072E+01
(PID.TID 0000.0001) %MON En_Budget_T2PE_mean          =   3.2884384432942E+01
(PID.TID 0000.0001) // =======================================================
(PID.TID 0000.0001) // End MONITOR dynamic field statistics
(PID.TID 0000.0001) // =======================================================
(PID.TID 0000.0001) // =======================================================
(PID.TID 0000.0001) // Begin MONITOR Land statistics
(PID.TID 0000.0001) // =======================================================
(PID.TID 0000.0001) %MON land_time_sec                =   3.1500000000000E+03
(PID.TID 0000.0001) %MON land_SnwH_ave_G              =   1.5324152980920E-01
(PID.TID 0000.0001) %MON land_SnwH_ave_S              =   5.5905735229224E-01
(PID.TID 0000.0001) %MON land_SnwH_ave_T              =   0.0000000000000E+00
(PID.TID 0000.0001) %MON land_SnwH_ave_N              =   1.2392753652077E-01
(PID.TID 0000.0001) %MON land_SnwH_max_S              =   9.9999645888297E-01
(PID.TID 0000.0001) %MON land_SnwH_max_T              =   0.0000000000000E+00
(PID.TID 0000.0001) %MON land_SnwH_max_N              =   9.9999949530326E-01
(PID.TID 0000.0001) %MON land_Tsrf_ave_G              =  -6.4827978826683E+00
(PID.TID 0000.0001) %MON land_Tsrf_ave_S              =  -6.0788341339808E+00
(PID.TID 0000.0001) %MON land_Tsrf_ave_T              =   1.4438267193317E+01
(PID.TID 0000.0001) %MON land_Tsrf_ave_N              =  -2.0584313241098E+01
(PID.TID 0000.0001) %MON land_Tsrf_min_S              =  -3.4403344078418E+01
(PID.TID 0000.0001) %MON land_Tsrf_min_T              =  -6.3826937916398E+00
(PID.TID 0000.0001) %MON land_Tsrf_min_N              =  -5.1376780662028E+01
(PID.TID 0000.0001) %MON land_Tsrf_max_S              =   2.5794734882387E+01
(PID.TID 0000.0001) %MON land_Tsrf_max_T              =   2.8163495435313E+01
(PID.TID 0000.0001) %MON land_Tsrf_max_N              =   1.2189357683672E+01
(PID.TID 0000.0001) %MON land_Tgr1_ave_G              =  -5.1573329444641E+00
(PID.TID 0000.0001) %MON land_Tgr1_ave_S              =  -5.5934123646081E+00
(PID.TID 0000.0001) %MON land_Tgr1_ave_T              =   1.4438267193317E+01
(PID.TID 0000.0001) %MON land_Tgr1_ave_N              =  -1.8101236912913E+01
(PID.TID 0000.0001) %MON land_Tgr1_min_S              =  -3.9072055648827E+01
(PID.TID 0000.0001) %MON land_Tgr1_min_T              =  -6.3826937916398E+00
(PID.TID 0000.0001) %MON land_Tgr1_min_N              =  -5.4923680859757E+01
(PID.TID 0000.0001) %MON land_Tgr1_max_S              =   2.5794734882387E+01
(PID.TID 0000.0001) %MON land_Tgr1_max_T              =   2.8163495435313E+01
(PID.TID 0000.0001) %MON land_Tgr1_max_N              =   1.2189357683672E+01
(PID.TID 0000.0001) %MON land_Tgr2_ave_G              =   4.2066896670608E+00
(PID.TID 0000.0001) %MON land_Tgr2_ave_S              =  -1.8730278589048E+01
(PID.TID 0000.0001) %MON land_Tgr2_ave_T              =   2.2012469318620E+01
(PID.TID 0000.0001) %MON land_Tgr2_ave_N              =  -2.4287358009850E-01
(PID.TID 0000.0001) %MON land_Tgr2_min_S              =  -6.4759258570836E+01
(PID.TID 0000.0001) %MON land_Tgr2_min_T              =  -9.7048731297935E+00
(PID.TID 0000.0001) %MON land_Tgr2_min_N              =  -4.0195304147839E+01
(PID.TID 0000.0001) %MON land_Tgr2_max_S              =   2.3360603931298E+01
(PID.TID 0000.0001) %MON land_Tgr2_max_T              =   3.1358885928356E+01
(PID.TID 0000.0001) %MON land_Tgr2_max_N              =   2.9830172881248E+01
(PID.TID 0000.0001) %MON land_TotEnerg_G              =  -6.2970437298431E+21
(PID.TID 0000.0001) %MON land_TotEnerg_S              =  -4.9971908261366E+21
(PID.TID 0000.0001) %MON land_TotEnerg_T              =   7.3138344230326E+21
(PID.TID 0000.0001) %MON land_TotEnerg_N              =  -8.6136873267391E+21
(PID.TID 0000.0001) %MON land_grdW_ave_G              =   4.8693641489897E-01
(PID.TID 0000.0001) %MON land_grdW_ave_S              =   3.0868561373039E-01
(PID.TID 0000.0001) %MON land_grdW_ave_T              =   5.6462761532097E-01
(PID.TID 0000.0001) %MON land_grdW_ave_N              =   4.9287998991611E-01
(PID.TID 0000.0001) %MON land_grdW_min_S              =   2.6109829236643E-02
(PID.TID 0000.0001) %MON land_grdW_min_T              =   0.0000000000000E+00
(PID.TID 0000.0001) %MON land_grdW_min_N              =   0.0000000000000E+00
(PID.TID 0000.0001) // =======================================================
(PID.TID 0000.0001) // End MONITOR Land statistics
(PID.TID 0000.0001) // =======================================================
(PID.TID 0000.0001) // =======================================================
(PID.TID 0000.0001) // Begin MONITOR Therm.SeaIce statistics
(PID.TID 0000.0001) // =======================================================
(PID.TID 0000.0001) %MON thSI_time_sec                =   3.1500000000000E+03
(PID.TID 0000.0001) %MON thSI_Ice_Area_G              =   1.2863992433046E+12
(PID.TID 0000.0001) %MON thSI_Ice_Area_S              =   6.7337679339070E+10
(PID.TID 0000.0001) %MON thSI_Ice_Area_N              =   1.2190615639656E+12
(PID.TID 0000.0001) %MON thSI_IceH_ave_G              =   1.0157962971705E-01
(PID.TID 0000.0001) %MON thSI_IceH_ave_S              =   9.9983709942495E-02
(PID.TID 0000.0001) %MON thSI_IceH_ave_N              =   1.0166778402952E-01
(PID.TID 0000.0001) %MON thSI_IceH_max_S              =   9.9983915710391E-02
(PID.TID 0000.0001) %MON thSI_IceH_max_N              =   1.0172165152148E-01
(PID.TID 0000.0001) %MON thSI_SnwH_ave_G              =   0.0000000000000E+00
(PID.TID 0000.0001) %MON thSI_SnwH_ave_S              =   0.0000000000000E+00
(PID.TID 0000.0001) %MON thSI_SnwH_ave_N              =   0.0000000000000E+00
(PID.TID 0000.0001) %MON thSI_SnwH_max_S              =   0.0000000000000E+00
(PID.TID 0000.0001) %MON thSI_SnwH_max_N              =   0.0000000000000E+00
(PID.TID 0000.0001) %MON thSI_Tsrf_ave_G              =  -5.7302550483306E+00
(PID.TID 0000.0001) %MON thSI_Tsrf_ave_S              =  -1.4388127553006E+00
(PID.TID 0000.0001) %MON thSI_Tsrf_ave_N              =  -5.9673027689479E+00
(PID.TID 0000.0001) %MON thSI_Tsrf_min_S              =  -1.4656656873407E+00
(PID.TID 0000.0001) %MON thSI_Tsrf_min_N              =  -6.1054343387095E+00
(PID.TID 0000.0001) %MON thSI_Tsrf_max_S              =  -1.4098142910674E+00
(PID.TID 0000.0001) %MON thSI_Tsrf_max_N              =  -5.2867887502452E+00
(PID.TID 0000.0001) %MON thSI_Tic1_ave_G              =  -3.6932840976002E+00
(PID.TID 0000.0001) %MON thSI_Tic1_ave_S              =  -1.6798537822104E+00
(PID.TID 0000.0001) %MON thSI_Tic1_ave_N              =  -3.8026583253661E+00
(PID.TID 0000.0001) %MON thSI_Tic1_min_S              =  -1.6892881138762E+00
(PID.TID 0000.0001) %MON thSI_Tic1_min_N              =  -3.8739042993868E+00
(PID.TID 0000.0001) %MON thSI_Tic1_max_S              =  -1.6691583020554E+00
(PID.TID 0000.0001) %MON thSI_Tic1_max_N              =  -3.4357953933496E+00
(PID.TID 0000.0001) %MON thSI_Tic2_ave_G              =  -2.3190762388132E+00
(PID.TID 0000.0001) %MON thSI_Tic2_ave_S              =  -1.8382727123233E+00
(PID.TID 0000.0001) %MON thSI_Tic2_ave_N              =  -2.3451946070602E+00
(PID.TID 0000.0001) %MON thSI_Tic2_min_S              =  -1.8406683379247E+00
(PID.TID 0000.0001) %MON thSI_Tic2_min_N              =  -2.3617497090700E+00
(PID.TID 0000.0001) %MON thSI_Tic2_max_S              =  -1.8355229160752E+00
(PID.TID 0000.0001) %MON thSI_Tic2_max_N              =  -2.2602407325478E+00
(PID.TID 0000.0001) %MON thSI_TotEnerg_G              =  -3.9733339868198E+19
(PID.TID 0000.0001) // =======================================================
(PID.TID 0000.0001) // End MONITOR Therm.SeaIce statistics
(PID.TID 0000.0001) // =======================================================
 cg2d: Sum(rhs),rhsMax =  -1.14596332423389E-10  2.24888532844741E+04
(PID.TID 0000.0001)      cg2d_init_res =   2.04207099583339E+04
(PID.TID 0000.0001)      cg2d_iters(min,last) =      -1      16
(PID.TID 0000.0001)      cg2d_last_res =   7.58683611336256E-11
(PID.TID 0000.0001) // =======================================================
(PID.TID 0000.0001) // Begin MONITOR dynamic field statistics
(PID.TID 0000.0001) // =======================================================
(PID.TID 0000.0001) %MON time_tsnumber                =                     8
(PID.TID 0000.0001) %MON time_secondsf                =   3.6000000000000E+03
(PID.TID 0000.0001) %MON dynstat_eta_max              =   4.0363443848043E+03
(PID.TID 0000.0001) %MON dynstat_eta_min              =  -2.6639199015103E+03
(PID.TID 0000.0001) %MON dynstat_eta_mean             =   3.5143845145972E-15
(PID.TID 0000.0001) %MON dynstat_eta_sd               =   4.0815161209356E+02
(PID.TID 0000.0001) %MON dynstat_eta_del2             =   4.9536728333626E+00
(PID.TID 0000.0001) %MON dynstat_uvel_max             =   7.2803284399707E+00
(PID.TID 0000.0001) %MON dynstat_uvel_min             =  -8.0428972164766E+00
(PID.TID 0000.0001) %MON dynstat_uvel_mean            =  -6.3584798198015E-03
(PID.TID 0000.0001) %MON dynstat_uvel_sd              =   7.7763407129079E-01
(PID.TID 0000.0001) %MON dynstat_uvel_del2            =   1.1580412236127E-03
(PID.TID 0000.0001) %MON dynstat_vvel_max             =   7.9606268349032E+00
(PID.TID 0000.0001) %MON dynstat_vvel_min             =  -8.4875548215197E+00
(PID.TID 0000.0001) %MON dynstat_vvel_mean            =   1.0554868693671E-02
(PID.TID 0000.0001) %MON dynstat_vvel_sd              =   7.8820974436783E-01
(PID.TID 0000.0001) %MON dynstat_vvel_del2            =   1.1855321543960E-03
(PID.TID 0000.0001) %MON dynstat_wvel_max             =   1.0982290349834E-01
(PID.TID 0000.0001) %MON dynstat_wvel_min             =  -3.7090001318386E-01
(PID.TID 0000.0001) %MON dynstat_wvel_mean            =  -1.9725233932052E-03
(PID.TID 0000.0001) %MON dynstat_wvel_sd              =   1.5067907541277E-02
(PID.TID 0000.0001) %MON dynstat_wvel_del2            =   1.2834022494375E-04
(PID.TID 0000.0001) %MON dynstat_theta_max            =   4.3755358865093E+02
(PID.TID 0000.0001) %MON dynstat_theta_min            =   2.8762303509948E+02
(PID.TID 0000.0001) %MON dynstat_theta_mean           =   3.3171396011906E+02
(PID.TID 0000.0001) %MON dynstat_theta_sd             =   4.7421346886459E+01
(PID.TID 0000.0001) %MON dynstat_theta_del2           =   7.1795659507040E-04
(PID.TID 0000.0001) %MON dynstat_salt_max             =   2.6582232755804E+00
(PID.TID 0000.0001) %MON dynstat_salt_min             =  -1.4306031878469E-03
(PID.TID 0000.0001) %MON dynstat_salt_mean            =   3.1351965935183E-02
(PID.TID 0000.0001) %MON dynstat_salt_sd              =   1.3306963535884E-01
(PID.TID 0000.0001) %MON dynstat_salt_del2            =   5.3196369353972E-04
(PID.TID 0000.0001) %MON advcfl_uvel_max              =   1.1439807166781E-02
(PID.TID 0000.0001) %MON advcfl_vvel_max              =   1.2038080848886E-02
(PID.TID 0000.0001) %MON advcfl_wvel_max              =   6.0692729430085E-03
(PID.TID 0000.0001) %MON advcfl_W_hf_max              =   1.2390748682636E-02
(PID.TID 0000.0001) %MON am_eta_mean                  =  -1.4945767413700E+09
(PID.TID 0000.0001) %MON am_uZo_mean                  =   1.4751833893561E+09
(PID.TID 0000.0001) %MON am_tot_mean                  =  -1.9393352013889E+07
(PID.TID 0000.0001) %MON pe_b_mean                    =  -9.4091658823306E-01
(PID.TID 0000.0001) %MON ke_max                       =   3.7646803424398E+01
(PID.TID 0000.0001) %MON ke_mean                      =   6.0946122544841E-01
(PID.TID 0000.0001) %MON ke_vol                       =   4.9523908919847E+19
(PID.TID 0000.0001) %MON vort_r_min                   =  -2.7474028052070E-05
(PID.TID 0000.0001) %MON vort_r_max                   =   1.8070979839346E-05
(PID.TID 0000.0001) %MON vort_a_mean                  =   6.7242814765259E-08
(PID.TID 0000.0001) %MON vort_a_sd                    =   8.3947523496686E-05
(PID.TID 0000.0001) %MON vort_p_mean                  =   6.8939449235712E-08
(PID.TID 0000.0001) %MON vort_p_sd                    =   9.1805491895383E-05
(PID.TID 0000.0001) %MON surfExpan_theta_mean         =   1.9204360125800E-01
(PID.TID 0000.0001) %MON surfExpan_salt_mean          =  -5.2476022049524E-05
(PID.TID 0000.0001) %MON surfExpan_Heat_mean          =  -1.5928196916816E+01
(PID.TID 0000.0001) %MON En_Budget_T2PE_mean          =   3.0063230066096E+01
(PID.TID 0000.0001) // =======================================================
(PID.TID 0000.0001) // End MONITOR dynamic field statistics
(PID.TID 0000.0001) // =======================================================
(PID.TID 0000.0001) // =======================================================
(PID.TID 0000.0001) // Begin MONITOR Land statistics
(PID.TID 0000.0001) // =======================================================
(PID.TID 0000.0001) %MON land_time_sec                =   3.6000000000000E+03
(PID.TID 0000.0001) %MON land_SnwH_ave_G              =   1.5324044901842E-01
(PID.TID 0000.0001) %MON land_SnwH_ave_S              =   5.5905642397829E-01
(PID.TID 0000.0001) %MON land_SnwH_ave_T              =   0.0000000000000E+00
(PID.TID 0000.0001) %MON land_SnwH_ave_N              =   1.2392568454713E-01
(PID.TID 0000.0001) %MON land_SnwH_max_S              =   9.9999591834191E-01
(PID.TID 0000.0001) %MON land_SnwH_max_T              =   0.0000000000000E+00
(PID.TID 0000.0001) %MON land_SnwH_max_N              =   9.9999942778202E-01
(PID.TID 0000.0001) %MON land_Tsrf_ave_G              =  -6.6941018487538E+00
(PID.TID 0000.0001) %MON land_Tsrf_ave_S              =  -6.1753777837564E+00
(PID.TID 0000.0001) %MON land_Tsrf_ave_T              =   1.3950081942445E+01
(PID.TID 0000.0001) %MON land_Tsrf_ave_N              =  -2.0647951575508E+01
(PID.TID 0000.0001) %MON land_Tsrf_min_S              =  -3.4282176978265E+01
(PID.TID 0000.0001) %MON land_Tsrf_min_T              =  -6.1791963389884E+00
(PID.TID 0000.0001) %MON land_Tsrf_min_N              =  -5.1688098117100E+01
(PID.TID 0000.0001) %MON land_Tsrf_max_S              =   2.5130831665762E+01
(PID.TID 0000.0001) %MON land_Tsrf_max_T              =   2.7298447319476E+01
(PID.TID 0000.0001) %MON land_Tsrf_max_N              =   1.1880232738133E+01
(PID.TID 0000.0001) %MON land_Tgr1_ave_G              =  -5.3838739846896E+00
(PID.TID 0000.0001) %MON land_Tgr1_ave_S              =  -5.7866615058552E+00
(PID.TID 0000.0001) %MON land_Tgr1_ave_T              =   1.3950081942445E+01
(PID.TID 0000.0001) %MON land_Tgr1_ave_N              =  -1.8163859333271E+01
(PID.TID 0000.0001) %MON land_Tgr1_min_S              =  -3.9083874926371E+01
(PID.TID 0000.0001) %MON land_Tgr1_min_T              =  -6.1791963389884E+00
(PID.TID 0000.0001) %MON land_Tgr1_min_N              =  -5.4910488118652E+01
(PID.TID 0000.0001) %MON land_Tgr1_max_S              =   2.5130831665762E+01
(PID.TID 0000.0001) %MON land_Tgr1_max_T              =   2.7298447319476E+01
(PID.TID 0000.0001) %MON land_Tgr1_max_N              =   1.1880232738133E+01
(PID.TID 0000.0001) %MON land_Tgr2_ave_G              =   4.2065435049450E+00
(PID.TID 0000.0001) %MON land_Tgr2_ave_S              =  -1.8730062898941E+01
(PID.TID 0000.0001) %MON land_Tgr2_ave_T              =   2.2012336138185E+01
(PID.TID 0000.0001) %MON land_Tgr2_ave_N              =  -2.4314579365525E-01
(PID.TID 0000.0001) %MON land_Tgr2_min_S              =  -6.4758825480903E+01
(PID.TID 0000.0001) %MON land_Tgr2_min_T              =  -9.7048285810475E+00
(PID.TID 0000.0001) %MON land_Tgr2_min_N              =  -4.0195543770498E+01
(PID.TID 0000.0001) %MON land_Tgr2_max_S              =   2.3360627316881E+01
(PID.TID 0000.0001) %MON land_Tgr2_max_T              =   3.1358543477374E+01
(PID.TID 0000.0001) %MON land_Tgr2_max_N              =   2.9829763284620E+01
(PID.TID 0000.0001) %MON land_TotEnerg_G              =  -6.3028566976613E+21
(PID.TID 0000.0001) %MON land_TotEnerg_S              =  -4.9978411330934E+21
(PID.TID 0000.0001) %MON land_TotEnerg_T              =   7.3095786649332E+21
(PID.TID 0000.0001) %MON land_TotEnerg_N              =  -8.6145942295012E+21
(PID.TID 0000.0001) %MON land_grdW_ave_G              =   4.8692290565883E-01
(PID.TID 0000.0001) %MON land_grdW_ave_S              =   3.0867477876690E-01
(PID.TID 0000.0001) %MON land_grdW_ave_T              =   5.6459310414882E-01
(PID.TID 0000.0001) %MON land_grdW_ave_N              =   4.9287963762946E-01
(PID.TID 0000.0001) %MON land_grdW_min_S              =   2.6165151297706E-02
(PID.TID 0000.0001) %MON land_grdW_min_T              =   0.0000000000000E+00
(PID.TID 0000.0001) %MON land_grdW_min_N              =   0.0000000000000E+00
(PID.TID 0000.0001) // =======================================================
(PID.TID 0000.0001) // End MONITOR Land statistics
(PID.TID 0000.0001) // =======================================================
(PID.TID 0000.0001) // =======================================================
(PID.TID 0000.0001) // Begin MONITOR Therm.SeaIce statistics
(PID.TID 0000.0001) // =======================================================
(PID.TID 0000.0001) %MON thSI_time_sec                =   3.6000000000000E+03
(PID.TID 0000.0001) %MON thSI_Ice_Area_G              =   1.3211931140994E+12
(PID.TID 0000.0001) %MON thSI_Ice_Area_S              =   6.7332116044453E+10
(PID.TID 0000.0001) %MON thSI_Ice_Area_N              =   1.2538609980550E+12
(PID.TID 0000.0001) %MON thSI_IceH_ave_G              =   1.0189114287891E-01
(PID.TID 0000.0001) %MON thSI_IceH_ave_S              =   9.9980864144904E-02
(PID.TID 0000.0001) %MON thSI_IceH_ave_N              =   1.0199372451243E-01
(PID.TID 0000.0001) %MON thSI_IceH_max_S              =   9.9981179922993E-02
(PID.TID 0000.0001) %MON thSI_IceH_max_N              =   1.0205717374178E-01
(PID.TID 0000.0001) %MON thSI_SnwH_ave_G              =   0.0000000000000E+00
(PID.TID 0000.0001) %MON thSI_SnwH_ave_S              =   0.0000000000000E+00
(PID.TID 0000.0001) %MON thSI_SnwH_ave_N              =   0.0000000000000E+00
(PID.TID 0000.0001) %MON thSI_SnwH_max_S              =   0.0000000000000E+00
(PID.TID 0000.0001) %MON thSI_SnwH_max_N              =   0.0000000000000E+00
(PID.TID 0000.0001) %MON thSI_Tsrf_ave_G              =  -6.0013963254258E+00
(PID.TID 0000.0001) %MON thSI_Tsrf_ave_S              =  -1.3945632892598E+00
(PID.TID 0000.0001) %MON thSI_Tsrf_ave_N              =  -6.2487824528114E+00
(PID.TID 0000.0001) %MON thSI_Tsrf_min_S              =  -1.4223921371488E+00
(PID.TID 0000.0001) %MON thSI_Tsrf_min_N              =  -6.3986383308891E+00
(PID.TID 0000.0001) %MON thSI_Tsrf_max_S              =  -1.3662468793830E+00
(PID.TID 0000.0001) %MON thSI_Tsrf_max_N              =  -5.5100584876901E+00
(PID.TID 0000.0001) %MON thSI_Tic1_ave_G              =  -3.9930205088398E+00
(PID.TID 0000.0001) %MON thSI_Tic1_ave_S              =  -1.6480815149943E+00
(PID.TID 0000.0001) %MON thSI_Tic1_ave_N              =  -4.1164582179394E+00
(PID.TID 0000.0001) %MON thSI_Tic1_min_S              =  -1.6585900498619E+00
(PID.TID 0000.0001) %MON thSI_Tic1_min_N              =  -4.1996451966087E+00
(PID.TID 0000.0001) %MON thSI_Tic1_max_S              =  -1.6364394155955E+00
(PID.TID 0000.0001) %MON thSI_Tic1_max_N              =  -3.6888673697335E+00
(PID.TID 0000.0001) %MON thSI_Tic2_ave_G              =  -2.4154555948685E+00
(PID.TID 0000.0001) %MON thSI_Tic2_ave_S              =  -1.8277246566264E+00
(PID.TID 0000.0001) %MON thSI_Tic2_ave_N              =  -2.4463937816503E+00
(PID.TID 0000.0001) %MON thSI_Tic2_min_S              =  -1.8305268695652E+00
(PID.TID 0000.0001) %MON thSI_Tic2_min_N              =  -2.4667801392523E+00
(PID.TID 0000.0001) %MON thSI_Tic2_max_S              =  -1.8245612082766E+00
(PID.TID 0000.0001) %MON thSI_Tic2_max_N              =  -2.3420670452827E+00
(PID.TID 0000.0001) %MON thSI_TotEnerg_G              =  -4.1004202780350E+19
(PID.TID 0000.0001) // =======================================================
(PID.TID 0000.0001) // End MONITOR Therm.SeaIce statistics
(PID.TID 0000.0001) // =======================================================
 cg2d: Sum(rhs),rhsMax =   1.39607436722144E-10  2.20961918557713E+04
(PID.TID 0000.0001)      cg2d_init_res =   1.96118782140443E+04
(PID.TID 0000.0001)      cg2d_iters(min,last) =      -1      16
(PID.TID 0000.0001)      cg2d_last_res =   7.82364622422832E-11
(PID.TID 0000.0001) // =======================================================
(PID.TID 0000.0001) // Begin MONITOR dynamic field statistics
(PID.TID 0000.0001) // =======================================================
(PID.TID 0000.0001) %MON time_tsnumber                =                     9
(PID.TID 0000.0001) %MON time_secondsf                =   4.0500000000000E+03
(PID.TID 0000.0001) %MON dynstat_eta_max              =   4.0101499192375E+03
(PID.TID 0000.0001) %MON dynstat_eta_min              =  -2.5309219712190E+03
(PID.TID 0000.0001) %MON dynstat_eta_mean             =  -1.1371544179375E-14
(PID.TID 0000.0001) %MON dynstat_eta_sd               =   4.3496655540834E+02
(PID.TID 0000.0001) %MON dynstat_eta_del2             =   4.7253998602663E+00
(PID.TID 0000.0001) %MON dynstat_uvel_max             =   6.7804172027290E+00
(PID.TID 0000.0001) %MON dynstat_uvel_min             =  -7.7643835125793E+00
(PID.TID 0000.0001) %MON dynstat_uvel_mean            =  -6.9937577352623E-03
(PID.TID 0000.0001) %MON dynstat_uvel_sd              =   7.8634629176093E-01
(PID.TID 0000.0001) %MON dynstat_uvel_del2            =   1.1119382072269E-03
(PID.TID 0000.0001) %MON dynstat_vvel_max             =   8.3410178562013E+00
(PID.TID 0000.0001) %MON dynstat_vvel_min             =  -8.4431097176670E+00
(PID.TID 0000.0001) %MON dynstat_vvel_mean            =   1.2209691091208E-02
(PID.TID 0000.0001) %MON dynstat_vvel_sd              =   8.1935550791492E-01
(PID.TID 0000.0001) %MON dynstat_vvel_del2            =   1.2188545169463E-03
(PID.TID 0000.0001) %MON dynstat_wvel_max             =   1.4139715177283E-01
(PID.TID 0000.0001) %MON dynstat_wvel_min             =  -3.4716658466628E-01
(PID.TID 0000.0001) %MON dynstat_wvel_mean            =  -1.7927095793071E-03
(PID.TID 0000.0001) %MON dynstat_wvel_sd              =   1.4197782544692E-02
(PID.TID 0000.0001) %MON dynstat_wvel_del2            =   1.2491944244232E-04
(PID.TID 0000.0001) %MON dynstat_theta_max            =   4.3757215144518E+02
(PID.TID 0000.0001) %MON dynstat_theta_min            =   2.8738033795994E+02
(PID.TID 0000.0001) %MON dynstat_theta_mean           =   3.3171287144317E+02
(PID.TID 0000.0001) %MON dynstat_theta_sd             =   4.7422778594400E+01
(PID.TID 0000.0001) %MON dynstat_theta_del2           =   7.8303700156514E-04
(PID.TID 0000.0001) %MON dynstat_salt_max             =   2.8574280100236E+00
(PID.TID 0000.0001) %MON dynstat_salt_min             =  -1.7189160572116E-03
(PID.TID 0000.0001) %MON dynstat_salt_mean            =   3.5097118602577E-02
(PID.TID 0000.0001) %MON dynstat_salt_sd              =   1.4853179151538E-01
(PID.TID 0000.0001) %MON dynstat_salt_del2            =   5.7120450752836E-04
(PID.TID 0000.0001) %MON advcfl_uvel_max              =   1.1043663466304E-02
(PID.TID 0000.0001) %MON advcfl_vvel_max              =   1.1961093673761E-02
(PID.TID 0000.0001) %MON advcfl_wvel_max              =   5.6809077490846E-03
(PID.TID 0000.0001) %MON advcfl_W_hf_max              =   1.1926832731824E-02
(PID.TID 0000.0001) %MON am_eta_mean                  =  -1.8793297860226E+09
(PID.TID 0000.0001) %MON am_uZo_mean                  =   1.8642069850886E+09
(PID.TID 0000.0001) %MON am_tot_mean                  =  -1.5122800933923E+07
(PID.TID 0000.0001) %MON pe_b_mean                    =  -9.9449772492823E-01
(PID.TID 0000.0001) %MON ke_max                       =   3.7632735191487E+01
(PID.TID 0000.0001) %MON ke_mean                      =   6.4114466774195E-01
(PID.TID 0000.0001) %MON ke_vol                       =   4.9523908919847E+19
(PID.TID 0000.0001) %MON vort_r_min                   =  -2.7087576446196E-05
(PID.TID 0000.0001) %MON vort_r_max                   =   1.9559870154191E-05
(PID.TID 0000.0001) %MON vort_a_mean                  =   6.7242814765189E-08
(PID.TID 0000.0001) %MON vort_a_sd                    =   8.3949828910437E-05
(PID.TID 0000.0001) %MON vort_p_mean                  =   6.8939449615329E-08
(PID.TID 0000.0001) %MON vort_p_sd                    =   9.1828941855905E-05
(PID.TID 0000.0001) %MON surfExpan_theta_mean         =   1.7452236399346E-01
(PID.TID 0000.0001) %MON surfExpan_salt_mean          =  -7.1937484262746E-05
(PID.TID 0000.0001) %MON surfExpan_Heat_mean          =  -1.4537508822880E+01
(PID.TID 0000.0001) %MON En_Budget_T2PE_mean          =   2.7369970882379E+01
(PID.TID 0000.0001) // =======================================================
(PID.TID 0000.0001) // End MONITOR dynamic field statistics
(PID.TID 0000.0001) // =======================================================
(PID.TID 0000.0001) // =======================================================
(PID.TID 0000.0001) // Begin MONITOR Land statistics
(PID.TID 0000.0001) // =======================================================
(PID.TID 0000.0001) %MON land_time_sec                =   4.0500000000000E+03
(PID.TID 0000.0001) %MON land_SnwH_ave_G              =   1.5323938633081E-01
(PID.TID 0000.0001) %MON land_SnwH_ave_S              =   5.5905548157761E-01
(PID.TID 0000.0001) %MON land_SnwH_ave_T              =   0.0000000000000E+00
(PID.TID 0000.0001) %MON land_SnwH_ave_N              =   1.2392387320765E-01
(PID.TID 0000.0001) %MON land_SnwH_max_S              =   9.9999536791356E-01
(PID.TID 0000.0001) %MON land_SnwH_max_T              =   0.0000000000000E+00
(PID.TID 0000.0001) %MON land_SnwH_max_N              =   9.9999936232790E-01
(PID.TID 0000.0001) %MON land_Tsrf_ave_G              =  -6.8866944146746E+00
(PID.TID 0000.0001) %MON land_Tsrf_ave_S              =  -6.2821017681663E+00
(PID.TID 0000.0001) %MON land_Tsrf_ave_T              =   1.3512409839450E+01
(PID.TID 0000.0001) %MON land_Tsrf_ave_N              =  -2.0704742478873E+01
(PID.TID 0000.0001) %MON land_Tsrf_min_S              =  -3.4166884564128E+01
(PID.TID 0000.0001) %MON land_Tsrf_min_T              =  -5.9828249788806E+00
(PID.TID 0000.0001) %MON land_Tsrf_min_N              =  -5.1859019871404E+01
(PID.TID 0000.0001) %MON land_Tsrf_max_S              =   2.4537225463238E+01
(PID.TID 0000.0001) %MON land_Tsrf_max_T              =   2.6516789471463E+01
(PID.TID 0000.0001) %MON land_Tsrf_max_N              =   1.1591506232501E+01
(PID.TID 0000.0001) %MON land_Tgr1_ave_G              =  -5.5886070608097E+00
(PID.TID 0000.0001) %MON land_Tgr1_ave_S              =  -5.9598328377733E+00
(PID.TID 0000.0001) %MON land_Tgr1_ave_T              =   1.3512409839450E+01
(PID.TID 0000.0001) %MON land_Tgr1_ave_N              =  -1.8223281015374E+01
(PID.TID 0000.0001) %MON land_Tgr1_min_S              =  -3.9095527973281E+01
(PID.TID 0000.0001) %MON land_Tgr1_min_T              =  -5.9828249788806E+00
(PID.TID 0000.0001) %MON land_Tgr1_min_N              =  -5.4897483588113E+01
(PID.TID 0000.0001) %MON land_Tgr1_max_S              =   2.4537225463238E+01
(PID.TID 0000.0001) %MON land_Tgr1_max_T              =   2.6516789471463E+01
(PID.TID 0000.0001) %MON land_Tgr1_max_N              =   1.1591506232501E+01
(PID.TID 0000.0001) %MON land_Tgr2_ave_G              =   4.2063940325407E+00
(PID.TID 0000.0001) %MON land_Tgr2_ave_S              =  -1.8729849963021E+01
(PID.TID 0000.0001) %MON land_Tgr2_ave_T              =   2.2012196044920E+01
(PID.TID 0000.0001) %MON land_Tgr2_ave_N              =  -2.4341909222538E-01
(PID.TID 0000.0001) %MON land_Tgr2_min_S              =  -6.4758392611809E+01
(PID.TID 0000.0001) %MON land_Tgr2_min_T              =  -9.7047815516285E+00
(PID.TID 0000.0001) %MON land_Tgr2_min_N              =  -4.0195783144521E+01
(PID.TID 0000.0001) %MON land_Tgr2_max_S              =   2.3360640056940E+01
(PID.TID 0000.0001) %MON land_Tgr2_max_T              =   3.1358191894643E+01
(PID.TID 0000.0001) %MON land_Tgr2_max_N              =   2.9829344585151E+01
(PID.TID 0000.0001) %MON land_TotEnerg_G              =  -6.3081270407059E+21
(PID.TID 0000.0001) %MON land_TotEnerg_S              =  -4.9984181099385E+21
(PID.TID 0000.0001) %MON land_TotEnerg_T              =   7.3057657829290E+21
(PID.TID 0000.0001) %MON land_TotEnerg_N              =  -8.6154747136963E+21
(PID.TID 0000.0001) %MON land_grdW_ave_G              =   4.8691006595670E-01
(PID.TID 0000.0001) %MON land_grdW_ave_S              =   3.0866430720623E-01
(PID.TID 0000.0001) %MON land_grdW_ave_T              =   5.6456040471847E-01
(PID.TID 0000.0001) %MON land_grdW_ave_N              =   4.9287929145912E-01
(PID.TID 0000.0001) %MON land_grdW_min_S              =   2.6225431248094E-02
(PID.TID 0000.0001) %MON land_grdW_min_T              =   0.0000000000000E+00
(PID.TID 0000.0001) %MON land_grdW_min_N              =   0.0000000000000E+00
(PID.TID 0000.0001) // =======================================================
(PID.TID 0000.0001) // End MONITOR Land statistics
(PID.TID 0000.0001) // =======================================================
(PID.TID 0000.0001) // =======================================================
(PID.TID 0000.0001) // Begin MONITOR Therm.SeaIce statistics
(PID.TID 0000.0001) // =======================================================
(PID.TID 0000.0001) %MON thSI_time_sec                =   4.0500000000000E+03
(PID.TID 0000.0001) %MON thSI_Ice_Area_G              =   1.3554215318337E+12
(PID.TID 0000.0001) %MON thSI_Ice_Area_S              =   6.7325629851879E+10
(PID.TID 0000.0001) %MON thSI_Ice_Area_N              =   1.2880959019818E+12
(PID.TID 0000.0001) %MON thSI_IceH_ave_G              =   1.0221195579937E-01
(PID.TID 0000.0001) %MON thSI_IceH_ave_S              =   9.9977967141716E-02
(PID.TID 0000.0001) %MON thSI_IceH_ave_N              =   1.0232872093559E-01
(PID.TID 0000.0001) %MON thSI_IceH_max_S              =   9.9978416067013E-02
(PID.TID 0000.0001) %MON thSI_IceH_max_N              =   1.0240192872973E-01
(PID.TID 0000.0001) %MON thSI_SnwH_ave_G              =   0.0000000000000E+00
(PID.TID 0000.0001) %MON thSI_SnwH_ave_S              =   0.0000000000000E+00
(PID.TID 0000.0001) %MON thSI_SnwH_ave_N              =   0.0000000000000E+00
(PID.TID 0000.0001) %MON thSI_SnwH_max_S              =   0.0000000000000E+00
(PID.TID 0000.0001) %MON thSI_SnwH_max_N              =   0.0000000000000E+00
(PID.TID 0000.0001) %MON thSI_Tsrf_ave_G              =  -6.2567245545970E+00
(PID.TID 0000.0001) %MON thSI_Tsrf_ave_S              =  -1.3508572990688E+00
(PID.TID 0000.0001) %MON thSI_Tsrf_ave_N              =  -6.5131422657627E+00
(PID.TID 0000.0001) %MON thSI_Tsrf_min_S              =  -1.3798269147843E+00
(PID.TID 0000.0001) %MON thSI_Tsrf_min_N              =  -6.6734626754281E+00
(PID.TID 0000.0001) %MON thSI_Tsrf_max_S              =  -1.3236646303918E+00
(PID.TID 0000.0001) %MON thSI_Tsrf_max_N              =  -5.7209586077053E+00
(PID.TID 0000.0001) %MON thSI_Tic1_ave_G              =  -4.2754338047388E+00
(PID.TID 0000.0001) %MON thSI_Tic1_ave_S              =  -1.6170046263699E+00
(PID.TID 0000.0001) %MON thSI_Tic1_ave_N              =  -4.4111913816588E+00
(PID.TID 0000.0001) %MON thSI_Tic1_min_S              =  -1.6285052764049E+00
(PID.TID 0000.0001) %MON thSI_Tic1_min_N              =  -4.5051923512393E+00
(PID.TID 0000.0001) %MON thSI_Tic1_max_S              =  -1.6046605717056E+00
(PID.TID 0000.0001) %MON thSI_Tic1_max_N              =  -3.9282747849600E+00
(PID.TID 0000.0001) %MON thSI_Tic2_ave_G              =  -2.5102597314937E+00
(PID.TID 0000.0001) %MON thSI_Tic2_ave_S              =  -1.8172455389118E+00
(PID.TID 0000.0001) %MON thSI_Tic2_ave_N              =  -2.5456497762320E+00
(PID.TID 0000.0001) %MON thSI_Tic2_min_S              =  -1.8204265343940E+00
(PID.TID 0000.0001) %MON thSI_Tic2_min_N              =  -2.5697280339801E+00
(PID.TID 0000.0001) %MON thSI_Tic2_max_S              =  -1.8137342887528E+00
(PID.TID 0000.0001) %MON thSI_Tic2_max_N              =  -2.4226427320535E+00
(PID.TID 0000.0001) %MON thSI_TotEnerg_G              =  -4.2265562484395E+19
(PID.TID 0000.0001) // =======================================================
(PID.TID 0000.0001) // End MONITOR Therm.SeaIce statistics
(PID.TID 0000.0001) // =======================================================
 Compute Stats, Diag. #     23  ETAN      vol(   0 ): 5.099E+14  Parms: SM      M1      
 Compute Stats, Diag. #     29  UVEL      vol(   0 ): 4.923E+19  Parms: UUR     MR      
 Compute Stats, Diag. #     30  VVEL      vol(   0 ): 4.923E+19  Parms: VVR     MR      
 Compute Stats, Diag. #     31  WVEL      vol(   0 ): 4.680E+19  Parms: WM      LR      
 Compute Stats, Diag. #     26  THETA     vol(   0 ): 4.952E+19  Parms: SMR     MR      
 Compute Stats, Diag. #    222  LdSnowH   vol(   1 ): 2.378E+13  Parms: SM P    Lg      
 Compute Stats, Diag. #    222  LdSnowH   vol(   2 ): 4.894E+13  Parms: SM P    Lg      
 Compute Stats, Diag. #    222  LdSnowH   vol(   3 ): 7.330E+13  Parms: SM P    Lg      
 Compute Stats, Diag. #    218  GrdSurfT  vol(   1 ): 2.378E+13  Parms: SM      Lg      
 Compute Stats, Diag. #    218  GrdSurfT  vol(   2 ): 4.894E+13  Parms: SM      Lg      
 Compute Stats, Diag. #    218  GrdSurfT  vol(   3 ): 7.330E+13  Parms: SM      Lg      
 Compute Stats, Diag. #    219  GrdTemp   vol(   1 ): 9.748E+13  Parms: SM      MG      
 Compute Stats, Diag. #    219  GrdTemp   vol(   2 ): 2.007E+14  Parms: SM      MG      
 Compute Stats, Diag. #    219  GrdTemp   vol(   3 ): 3.005E+14  Parms: SM      MG      
 Compute Stats, Diag. #    221  GrdWater  vol(   1 ): 9.748E+13  Parms: SM P    MG      
 Compute Stats, Diag. #    221  GrdWater  vol(   2 ): 2.007E+14  Parms: SM P    MG      
 Compute Stats, Diag. #    221  GrdWater  vol(   3 ): 3.005E+14  Parms: SM P    MG      
 Compute Stats, Diag. #    229  SI_Fract  vol(   0 ): 5.099E+14  Parms: SM P    M1      
 Compute Stats, Diag. #    229  SI_Fract  vol(   1 ): 1.526E+14  Parms: SM P    M1      
 Compute Stats, Diag. #    229  SI_Fract  vol(   3 ): 1.526E+14  Parms: SM P    M1      
 Compute Stats, Diag. #    230  SI_Thick  vol(   0 ): 1.321E+12  Parms: SM PC   M1      
    use Counter Mate  #    229  SI_Fract  vol(   0 ): 5.099E+14 integral 1.321E+12
 Compute Stats, Diag. #    230  SI_Thick  vol(   1 ): 6.733E+10  Parms: SM PC   M1      
    use Counter Mate  #    229  SI_Fract  vol(   1 ): 1.526E+14 integral 6.733E+10
 Compute Stats, Diag. #    230  SI_Thick  vol(   3 ): 1.254E+12  Parms: SM PC   M1      
    use Counter Mate  #    229  SI_Fract  vol(   3 ): 1.526E+14 integral 1.254E+12
 Compute Stats, Diag. #    231  SI_SnowH  vol(   0 ): 1.321E+12  Parms: SM PC   M1      
    use Counter Mate  #    229  SI_Fract  vol(   0 ): 5.099E+14 integral 1.321E+12
 Compute Stats, Diag. #    231  SI_SnowH  vol(   1 ): 6.733E+10  Parms: SM PC   M1      
    use Counter Mate  #    229  SI_Fract  vol(   1 ): 1.526E+14 integral 6.733E+10
 Compute Stats, Diag. #    231  SI_SnowH  vol(   3 ): 1.254E+12  Parms: SM PC   M1      
    use Counter Mate  #    229  SI_Fract  vol(   3 ): 1.526E+14 integral 1.254E+12
 Compute Stats, Diag. #    232  SI_Tsrf   vol(   0 ): 1.321E+12  Parms: SM  C   M1      
    use Counter Mate  #    229  SI_Fract  vol(   0 ): 5.099E+14 integral 1.321E+12
 Compute Stats, Diag. #    232  SI_Tsrf   vol(   1 ): 6.733E+10  Parms: SM  C   M1      
    use Counter Mate  #    229  SI_Fract  vol(   1 ): 1.526E+14 integral 6.733E+10
 Compute Stats, Diag. #    232  SI_Tsrf   vol(   3 ): 1.254E+12  Parms: SM  C   M1      
    use Counter Mate  #    229  SI_Fract  vol(   3 ): 1.526E+14 integral 1.254E+12
 Compute Stats, Diag. #    233  SI_Tice1  vol(   0 ): 1.321E+12  Parms: SM  C   M1      
    use Counter Mate  #    229  SI_Fract  vol(   0 ): 5.099E+14 integral 1.321E+12
 Compute Stats, Diag. #    233  SI_Tice1  vol(   1 ): 6.733E+10  Parms: SM  C   M1      
    use Counter Mate  #    229  SI_Fract  vol(   1 ): 1.526E+14 integral 6.733E+10
 Compute Stats, Diag. #    233  SI_Tice1  vol(   3 ): 1.254E+12  Parms: SM  C   M1      
    use Counter Mate  #    229  SI_Fract  vol(   3 ): 1.526E+14 integral 1.254E+12
 Compute Stats, Diag. #    234  SI_Tice2  vol(   0 ): 1.321E+12  Parms: SM  C   M1      
    use Counter Mate  #    229  SI_Fract  vol(   0 ): 5.099E+14 integral 1.321E+12
 Compute Stats, Diag. #    234  SI_Tice2  vol(   1 ): 6.733E+10  Parms: SM  C   M1      
    use Counter Mate  #    229  SI_Fract  vol(   1 ): 1.526E+14 integral 6.733E+10
 Compute Stats, Diag. #    234  SI_Tice2  vol(   3 ): 1.254E+12  Parms: SM  C   M1      
    use Counter Mate  #    229  SI_Fract  vol(   3 ): 1.526E+14 integral 1.254E+12
 Compute Stats, Diag. #    240  SIsnwPrc  vol(   0 ): 1.321E+12  Parms: SM  C   M1      
    use Counter Mate  #    238  SI_FrcFx  vol(   0 ): 5.099E+14 integral 1.321E+12
 Compute Stats, Diag. #    240  SIsnwPrc  vol(   1 ): 6.733E+10  Parms: SM  C   M1      
    use Counter Mate  #    238  SI_FrcFx  vol(   1 ): 1.526E+14 integral 6.733E+10
 Compute Stats, Diag. #    240  SIsnwPrc  vol(   3 ): 1.254E+12  Parms: SM  C   M1      
    use Counter Mate  #    238  SI_FrcFx  vol(   3 ): 1.526E+14 integral 1.254E+12
 Compute Stats, Diag. #    239  SIalbedo  vol(   0 ): 1.321E+12  Parms: SM PC   M1      
    use Counter Mate  #    238  SI_FrcFx  vol(   0 ): 5.099E+14 integral 1.321E+12
 Compute Stats, Diag. #    239  SIalbedo  vol(   1 ): 6.733E+10  Parms: SM PC   M1      
    use Counter Mate  #    238  SI_FrcFx  vol(   1 ): 1.526E+14 integral 6.733E+10
 Compute Stats, Diag. #    239  SIalbedo  vol(   3 ): 1.254E+12  Parms: SM PC   M1      
    use Counter Mate  #    238  SI_FrcFx  vol(   3 ): 1.526E+14 integral 1.254E+12
 Compute Stats, Diag. #    237  SIsnwAge  vol(   0 ): 5.099E+14  Parms: SM P    M1      
 Compute Stats, Diag. #    237  SIsnwAge  vol(   1 ): 1.526E+14  Parms: SM P    M1      
 Compute Stats, Diag. #    237  SIsnwAge  vol(   3 ): 1.526E+14  Parms: SM P    M1      
 Compute Stats, Diag. #    243  SIflx2oc  vol(   0 ): 5.099E+14  Parms: SM      M1      
 Compute Stats, Diag. #    243  SIflx2oc  vol(   1 ): 1.526E+14  Parms: SM      M1      
 Compute Stats, Diag. #    243  SIflx2oc  vol(   3 ): 1.526E+14  Parms: SM      M1      
 Compute Stats, Diag. #    244  SIfrw2oc  vol(   0 ): 5.099E+14  Parms: SM      M1      
 Compute Stats, Diag. #    244  SIfrw2oc  vol(   1 ): 1.526E+14  Parms: SM      M1      
 Compute Stats, Diag. #    244  SIfrw2oc  vol(   3 ): 1.526E+14  Parms: SM      M1      
 Compute Stats, Diag. #    245  SIsaltFx  vol(   0 ): 5.099E+14  Parms: SM      M1      
 Compute Stats, Diag. #    245  SIsaltFx  vol(   1 ): 1.526E+14  Parms: SM      M1      
 Compute Stats, Diag. #    245  SIsaltFx  vol(   3 ): 1.526E+14  Parms: SM      M1      
 cg2d: Sum(rhs),rhsMax =   1.64618541020900E-10  2.12723849218361E+04
(PID.TID 0000.0001)      cg2d_init_res =   1.88134860658897E+04
(PID.TID 0000.0001)      cg2d_iters(min,last) =      -1      16
(PID.TID 0000.0001)      cg2d_last_res =   8.08308568842562E-11
(PID.TID 0000.0001) // =======================================================
(PID.TID 0000.0001) // Begin MONITOR dynamic field statistics
(PID.TID 0000.0001) // =======================================================
(PID.TID 0000.0001) %MON time_tsnumber                =                    10
(PID.TID 0000.0001) %MON time_secondsf                =   4.5000000000000E+03
(PID.TID 0000.0001) %MON dynstat_eta_max              =   3.9160521753951E+03
(PID.TID 0000.0001) %MON dynstat_eta_min              =  -2.2941830609894E+03
(PID.TID 0000.0001) %MON dynstat_eta_mean             =  -2.1362437299444E-14
(PID.TID 0000.0001) %MON dynstat_eta_sd               =   4.5914917499843E+02
(PID.TID 0000.0001) %MON dynstat_eta_del2             =   4.5923820143864E+00
(PID.TID 0000.0001) %MON dynstat_uvel_max             =   6.7832954029838E+00
(PID.TID 0000.0001) %MON dynstat_uvel_min             =  -7.2528092452346E+00
(PID.TID 0000.0001) %MON dynstat_uvel_mean            =  -7.6078025729367E-03
(PID.TID 0000.0001) %MON dynstat_uvel_sd              =   7.8911877359159E-01
(PID.TID 0000.0001) %MON dynstat_uvel_del2            =   1.0776635029969E-03
(PID.TID 0000.0001) %MON dynstat_vvel_max             =   8.5725023769575E+00
(PID.TID 0000.0001) %MON dynstat_vvel_min             =  -8.3947076808467E+00
(PID.TID 0000.0001) %MON dynstat_vvel_mean            =   1.3904383204226E-02
(PID.TID 0000.0001) %MON dynstat_vvel_sd              =   8.4037505094931E-01
(PID.TID 0000.0001) %MON dynstat_vvel_del2            =   1.2310828110597E-03
(PID.TID 0000.0001) %MON dynstat_wvel_max             =   1.6030148913440E-01
(PID.TID 0000.0001) %MON dynstat_wvel_min             =  -3.3692179832463E-01
(PID.TID 0000.0001) %MON dynstat_wvel_mean            =  -1.6233734051451E-03
(PID.TID 0000.0001) %MON dynstat_wvel_sd              =   1.3396575396883E-02
(PID.TID 0000.0001) %MON dynstat_wvel_del2            =   1.2146873325296E-04
(PID.TID 0000.0001) %MON dynstat_theta_max            =   4.3759306616617E+02
(PID.TID 0000.0001) %MON dynstat_theta_min            =   2.8713740328264E+02
(PID.TID 0000.0001) %MON dynstat_theta_mean           =   3.3171167152604E+02
(PID.TID 0000.0001) %MON dynstat_theta_sd             =   4.7424300301400E+01
(PID.TID 0000.0001) %MON dynstat_theta_del2           =   8.5303586656303E-04
(PID.TID 0000.0001) %MON dynstat_salt_max             =   3.0384348753240E+00
(PID.TID 0000.0001) %MON dynstat_salt_min             =  -1.8827710359122E-03
(PID.TID 0000.0001) %MON dynstat_salt_mean            =   3.8813403415901E-02
(PID.TID 0000.0001) %MON dynstat_salt_sd              =   1.6382702927694E-01
(PID.TID 0000.0001) %MON dynstat_salt_del2            =   6.0767673555023E-04
(PID.TID 0000.0001) %MON advcfl_uvel_max              =   1.0316026296216E-02
(PID.TID 0000.0001) %MON advcfl_vvel_max              =   1.2052979566044E-02
(PID.TID 0000.0001) %MON advcfl_wvel_max              =   5.5132657907667E-03
(PID.TID 0000.0001) %MON advcfl_W_hf_max              =   1.1219184864379E-02
(PID.TID 0000.0001) %MON am_eta_mean                  =  -2.3031541883054E+09
(PID.TID 0000.0001) %MON am_uZo_mean                  =   2.2911519007580E+09
(PID.TID 0000.0001) %MON am_tot_mean                  =  -1.2002287547383E+07
(PID.TID 0000.0001) %MON pe_b_mean                    =  -1.0337821208407E+00
(PID.TID 0000.0001) %MON ke_max                       =   3.6083843257506E+01
(PID.TID 0000.0001) %MON ke_mean                      =   6.6068311077628E-01
(PID.TID 0000.0001) %MON ke_vol                       =   4.9523908919847E+19
(PID.TID 0000.0001) %MON vort_r_min                   =  -2.9390156112128E-05
(PID.TID 0000.0001) %MON vort_r_max                   =   2.0134959244231E-05
(PID.TID 0000.0001) %MON vort_a_mean                  =   6.7242814765306E-08
(PID.TID 0000.0001) %MON vort_a_sd                    =   8.3952221344492E-05
(PID.TID 0000.0001) %MON vort_p_mean                  =   6.8939450254231E-08
(PID.TID 0000.0001) %MON vort_p_sd                    =   9.1849231096001E-05
(PID.TID 0000.0001) %MON surfExpan_theta_mean         =   1.5783353749640E-01
(PID.TID 0000.0001) %MON surfExpan_salt_mean          =  -9.3850981324465E-05
(PID.TID 0000.0001) %MON surfExpan_Heat_mean          =  -1.3212829197534E+01
(PID.TID 0000.0001) %MON En_Budget_T2PE_mean          =   2.4810111776953E+01
(PID.TID 0000.0001) // =======================================================
(PID.TID 0000.0001) // End MONITOR dynamic field statistics
(PID.TID 0000.0001) // =======================================================
(PID.TID 0000.0001) // =======================================================
(PID.TID 0000.0001) // Begin MONITOR Land statistics
(PID.TID 0000.0001) // =======================================================
(PID.TID 0000.0001) %MON land_time_sec                =   4.5000000000000E+03
(PID.TID 0000.0001) %MON land_SnwH_ave_G              =   1.5323834172763E-01
(PID.TID 0000.0001) %MON land_SnwH_ave_S              =   5.5905453316924E-01
(PID.TID 0000.0001) %MON land_SnwH_ave_T              =   0.0000000000000E+00
(PID.TID 0000.0001) %MON land_SnwH_ave_N              =   1.2392209984418E-01
(PID.TID 0000.0001) %MON land_SnwH_max_S              =   9.9999481079068E-01
(PID.TID 0000.0001) %MON land_SnwH_max_T              =   0.0000000000000E+00
(PID.TID 0000.0001) %MON land_SnwH_max_N              =   9.9999929757130E-01
(PID.TID 0000.0001) %MON land_Tsrf_ave_G              =  -7.0626582197456E+00
(PID.TID 0000.0001) %MON land_Tsrf_ave_S              =  -6.3985469139452E+00
(PID.TID 0000.0001) %MON land_Tsrf_ave_T              =   1.3119764349896E+01
(PID.TID 0000.0001) %MON land_Tsrf_ave_N              =  -2.0755320117968E+01
(PID.TID 0000.0001) %MON land_Tsrf_min_S              =  -3.4077244466282E+01
(PID.TID 0000.0001) %MON land_Tsrf_min_T              =  -5.7932387617871E+00
(PID.TID 0000.0001) %MON land_Tsrf_min_N              =  -5.1918884688176E+01
(PID.TID 0000.0001) %MON land_Tsrf_max_S              =   2.4006287249445E+01
(PID.TID 0000.0001) %MON land_Tsrf_max_T              =   2.5810123002387E+01
(PID.TID 0000.0001) %MON land_Tsrf_max_N              =   1.1320001377605E+01
(PID.TID 0000.0001) %MON land_Tgr1_ave_G              =  -5.7736137550764E+00
(PID.TID 0000.0001) %MON land_Tgr1_ave_S              =  -6.1145930930599E+00
(PID.TID 0000.0001) %MON land_Tgr1_ave_T              =   1.3119764349896E+01
(PID.TID 0000.0001) %MON land_Tgr1_ave_N              =  -1.8279444389212E+01
(PID.TID 0000.0001) %MON land_Tgr1_min_S              =  -3.9107013415518E+01
(PID.TID 0000.0001) %MON land_Tgr1_min_T              =  -5.7932387617871E+00
(PID.TID 0000.0001) %MON land_Tgr1_min_N              =  -5.4884558824055E+01
(PID.TID 0000.0001) %MON land_Tgr1_max_S              =   2.4006287249445E+01
(PID.TID 0000.0001) %MON land_Tgr1_max_T              =   2.5810123002387E+01
(PID.TID 0000.0001) %MON land_Tgr1_max_N              =   1.1320001377605E+01
(PID.TID 0000.0001) %MON land_Tgr2_ave_G              =   4.2062415816974E+00
(PID.TID 0000.0001) %MON land_Tgr2_ave_S              =  -1.8729639488015E+01
(PID.TID 0000.0001) %MON land_Tgr2_ave_T              =   2.2012049785433E+01
(PID.TID 0000.0001) %MON land_Tgr2_ave_N              =  -2.4369340840794E-01
(PID.TID 0000.0001) %MON land_Tgr2_min_S              =  -6.4757959961742E+01
(PID.TID 0000.0001) %MON land_Tgr2_min_T              =  -9.7047321273277E+00
(PID.TID 0000.0001) %MON land_Tgr2_min_N              =  -4.0196022272128E+01
(PID.TID 0000.0001) %MON land_Tgr2_max_S              =   2.3360643276267E+01
(PID.TID 0000.0001) %MON land_Tgr2_max_T              =   3.1357832019914E+01
(PID.TID 0000.0001) %MON land_Tgr2_max_N              =   2.9828917138251E+01
(PID.TID 0000.0001) %MON land_TotEnerg_G              =  -6.3129153807876E+21
(PID.TID 0000.0001) %MON land_TotEnerg_S              =  -4.9989306805594E+21
(PID.TID 0000.0001) %MON land_TotEnerg_T              =   7.3023459281156E+21
(PID.TID 0000.0001) %MON land_TotEnerg_N              =  -8.6163306283437E+21
(PID.TID 0000.0001) %MON land_grdW_ave_G              =   4.8689783308343E-01
(PID.TID 0000.0001) %MON land_grdW_ave_S              =   3.0865415429387E-01
(PID.TID 0000.0001) %MON land_grdW_ave_T              =   5.6452935620911E-01
(PID.TID 0000.0001) %MON land_grdW_ave_N              =   4.9287894838761E-01
(PID.TID 0000.0001) %MON land_grdW_min_S              =   2.6290015337804E-02
(PID.TID 0000.0001) %MON land_grdW_min_T              =   0.0000000000000E+00
(PID.TID 0000.0001) %MON land_grdW_min_N              =   0.0000000000000E+00
(PID.TID 0000.0001) // =======================================================
(PID.TID 0000.0001) // End MONITOR Land statistics
(PID.TID 0000.0001) // =======================================================
(PID.TID 0000.0001) // =======================================================
(PID.TID 0000.0001) // Begin MONITOR Therm.SeaIce statistics
(PID.TID 0000.0001) // =======================================================
(PID.TID 0000.0001) %MON thSI_time_sec                =   4.5000000000000E+03
(PID.TID 0000.0001) %MON thSI_Ice_Area_G              =   1.3891022575625E+12
(PID.TID 0000.0001) %MON thSI_Ice_Area_S              =   6.7318230031271E+10
(PID.TID 0000.0001) %MON thSI_Ice_Area_N              =   1.3217840275312E+12
(PID.TID 0000.0001) %MON thSI_IceH_ave_G              =   1.0254157723361E-01
(PID.TID 0000.0001) %MON thSI_IceH_ave_S              =   9.9975022068641E-02
(PID.TID 0000.0001) %MON thSI_IceH_ave_N              =   1.0267229144061E-01
(PID.TID 0000.0001) %MON thSI_IceH_max_S              =   9.9975647842898E-02
(PID.TID 0000.0001) %MON thSI_IceH_max_N              =   1.0275541575705E-01
(PID.TID 0000.0001) %MON thSI_SnwH_ave_G              =   0.0000000000000E+00
(PID.TID 0000.0001) %MON thSI_SnwH_ave_S              =   0.0000000000000E+00
(PID.TID 0000.0001) %MON thSI_SnwH_ave_N              =   0.0000000000000E+00
(PID.TID 0000.0001) %MON thSI_SnwH_max_S              =   0.0000000000000E+00
(PID.TID 0000.0001) %MON thSI_SnwH_max_N              =   0.0000000000000E+00
(PID.TID 0000.0001) %MON thSI_Tsrf_ave_G              =  -6.4940332358436E+00
(PID.TID 0000.0001) %MON thSI_Tsrf_ave_S              =  -1.3078715578368E+00
(PID.TID 0000.0001) %MON thSI_Tsrf_ave_N              =  -6.7581635457487E+00
(PID.TID 0000.0001) %MON thSI_Tsrf_min_S              =  -1.3381620565589E+00
(PID.TID 0000.0001) %MON thSI_Tsrf_min_N              =  -6.9277305756872E+00
(PID.TID 0000.0001) %MON thSI_Tsrf_max_S              =  -1.2819200818643E+00
(PID.TID 0000.0001) %MON thSI_Tsrf_max_N              =  -5.9175561922669E+00
(PID.TID 0000.0001) %MON thSI_Tic1_ave_G              =  -4.5381778897868E+00
(PID.TID 0000.0001) %MON thSI_Tic1_ave_S              =  -1.5865954225827E+00
(PID.TID 0000.0001) %MON thSI_Tic1_ave_N              =  -4.6845523697292E+00
(PID.TID 0000.0001) %MON thSI_Tic1_min_S              =  -1.5990323673021E+00
(PID.TID 0000.0001) %MON thSI_Tic1_min_N              =  -4.7881802558508E+00
(PID.TID 0000.0001) %MON thSI_Tic1_max_S              =  -1.5737608322912E+00
(PID.TID 0000.0001) %MON thSI_Tic1_max_N              =  -4.1519253979965E+00
(PID.TID 0000.0001) %MON thSI_Tic2_ave_G              =  -2.6016906082137E+00
(PID.TID 0000.0001) %MON thSI_Tic2_ave_S              =  -1.8068916644572E+00
(PID.TID 0000.0001) %MON thSI_Tic2_ave_N              =  -2.6411061703211E+00
(PID.TID 0000.0001) %MON thSI_Tic2_min_S              =  -1.8104270092664E+00
(PID.TID 0000.0001) %MON thSI_Tic2_min_N              =  -2.6686469203659E+00
(PID.TID 0000.0001) %MON thSI_Tic2_max_S              =  -1.8031001652089E+00
(PID.TID 0000.0001) %MON thSI_Tic2_max_N              =  -2.5005188271913E+00
(PID.TID 0000.0001) %MON thSI_TotEnerg_G              =  -4.3517620450857E+19
(PID.TID 0000.0001) // =======================================================
(PID.TID 0000.0001) // End MONITOR Therm.SeaIce statistics
(PID.TID 0000.0001) // =======================================================
 Computing Diagnostic #     23  ETAN         Counter:      10   Parms: SM      M1      
 Computing Diagnostic #     24  ETANSQ       Counter:      10   Parms: SM P    M1      
 Computing Diagnostic #     25  DETADT2      Counter:      10   Parms: SM      M1      
 Computing Diagnostic #     29  UVEL         Counter:      10   Parms: UUR     MR      
           Vector  Mate for  UVEL         Diagnostic #     30  VVEL     exists 
 Computing Diagnostic #     30  VVEL         Counter:      10   Parms: VVR     MR      
           Vector  Mate for  VVEL         Diagnostic #     29  UVEL     exists 
 Computing Diagnostic #     31  WVEL         Counter:      10   Parms: WM      LR      
 Computing Diagnostic #     26  THETA        Counter:      10   Parms: SMR     MR      
 Computing Diagnostic #     27  SALT         Counter:      10   Parms: SMR     MR      
 Computing Diagnostic #     34  UVELSQ       Counter:      10   Parms: UURP    MR      
           Vector  Mate for  UVELSQ       Diagnostic #     35  VVELSQ   exists 
 Computing Diagnostic #     35  VVELSQ       Counter:      10   Parms: VVRP    MR      
           Vector  Mate for  VVELSQ       Diagnostic #     34  UVELSQ   exists 
 Computing Diagnostic #     36  WVELSQ       Counter:      10   Parms: WM P    LR      
 Computing Diagnostic #     32  THETASQ      Counter:      10   Parms: SMRP    MR      
 Computing Diagnostic #     40  UV_VEL_Z     Counter:      10   Parms: UZR     MR      
           Vector  Mate for  UV_VEL_Z     Diagnostic #     40  UV_VEL_Z exists 
 Computing Diagnostic #     69  PHIHYD       Counter:      10   Parms: SMR     MR      
 Computing Diagnostic #     70  PHIHYDSQ     Counter:      10   Parms: SMRP    MR      
 Computing Diagnostic #     43  UVELMASS     Counter:      10   Parms: UUr     MR      
           Vector  Mate for  UVELMASS     Diagnostic #     44  VVELMASS exists 
 Computing Diagnostic #     44  VVELMASS     Counter:      10   Parms: VVr     MR      
           Vector  Mate for  VVELMASS     Diagnostic #     43  UVELMASS exists 
 Computing Diagnostic #     48  UTHMASS      Counter:      10   Parms: UUr     MR      
           Vector  Mate for  UTHMASS      Diagnostic #     49  VTHMASS  exists 
 Computing Diagnostic #     49  VTHMASS      Counter:      10   Parms: VVr     MR      
           Vector  Mate for  VTHMASS      Diagnostic #     48  UTHMASS  exists 
 Computing Diagnostic #     56  WVELTH       Counter:      10   Parms: WM      LR      
 Computing Diagnostic #     51  USLTMASS     Counter:      10   Parms: UUr     MR      
           Vector  Mate for  USLTMASS     Diagnostic #     52  VSLTMASS exists 
 Computing Diagnostic #     52  VSLTMASS     Counter:      10   Parms: VVr     MR      
           Vector  Mate for  VSLTMASS     Diagnostic #     51  USLTMASS exists 
 Computing Diagnostic #     59  WVELSLT      Counter:      10   Parms: WM      LR      
 Computing Diagnostic #    212  UFLUX        Counter:      10   Parms: UU      L1      
           Vector  Mate for  UFLUX        Diagnostic #    213  VFLUX    exists 
 Computing Diagnostic #    213  VFLUX        Counter:      10   Parms: VV      L1      
           Vector  Mate for  VFLUX        Diagnostic #    212  UFLUX    exists 
 Computing Diagnostic #    186  TSR          Counter:      10   Parms: SM P    U1      
 Computing Diagnostic #    187  OLR          Counter:      10   Parms: SM P    U1      
 Computing Diagnostic #    188  RADSWG       Counter:      10   Parms: SM P    L1      
 Computing Diagnostic #    189  RADLWG       Counter:      10   Parms: SM      L1      
 Computing Diagnostic #    190  HFLUX        Counter:      10   Parms: SM      L1      
 Computing Diagnostic #    191  EVAP         Counter:      10   Parms: SM      L1      
 Computing Diagnostic #    192  PRECON       Counter:      10   Parms: SM P    L1      
 Computing Diagnostic #    193  PRECLS       Counter:      10   Parms: SM      M1      
 Computing Diagnostic #    194  CLDFRC       Counter:      10   Parms: SM P    M1      
 Computing Diagnostic #    195  CLDPRS       Counter:      10   Parms: SM PC   M1      
       use Counter Mate for  CLDPRS       Diagnostic #    194  CLDFRC  
 Computing Diagnostic #    196  CLDMAS       Counter:      10   Parms: SM P    L1      
 Computing Diagnostic #    197  DRAG         Counter:      10   Parms: SM P    L1      
 Computing Diagnostic #    198  WINDS        Counter:      10   Parms: SM P    L1      
 Computing Diagnostic #    199  TS           Counter:      10   Parms: SM      L1      
 Computing Diagnostic #    200  QS           Counter:      10   Parms: SM P    L1      
 Computing Diagnostic #    201  ENPREC       Counter:      10   Parms: SM      M1      
 Computing Diagnostic #    202  ALBVISDF     Counter:      10   Parms: SM P    L1      
 Computing Diagnostic #    216  DTSIMPL      Counter:      10   Parms: SM P    L1      
 Computing Diagnostic #     28  RELHUM       Counter:      10   Parms: SMR     MR      
 Computing Diagnostic #    176  DIABT        Counter:      10   Parms: SMr     MR      
 Computing Diagnostic #    177  DIABQ        Counter:      10   Parms: SMr     MR      
 Computing Diagnostic #    178  RADSW        Counter:      10   Parms: SM      ML      
 Computing Diagnostic #    179  RADLW        Counter:      10   Parms: SM      ML      
 Computing Diagnostic #    180  DTCONV       Counter:      10   Parms: SM      ML      
 Computing Diagnostic #    182  DTLS         Counter:      10   Parms: SM      ML      
 Computing Diagnostic #    183  DQCONV       Counter:      10   Parms: SM      MR      
 Computing Diagnostic #    185  DQLS         Counter:      10   Parms: SM      ML      
 Computing Diagnostic #    229  SI_Fract     Counter:      10   Parms: SM P    M1      
 Computing Diagnostic #    230  SI_Thick     Counter:      10   Parms: SM PC   M1      
       use Counter Mate for  SI_Thick     Diagnostic #    229  SI_Fract
 Computing Diagnostic #    231  SI_SnowH     Counter:      10   Parms: SM PC   M1      
       use Counter Mate for  SI_SnowH     Diagnostic #    229  SI_Fract
 Computing Diagnostic #    232  SI_Tsrf      Counter:      10   Parms: SM  C   M1      
       use Counter Mate for  SI_Tsrf      Diagnostic #    229  SI_Fract
 Computing Diagnostic #    233  SI_Tice1     Counter:      10   Parms: SM  C   M1      
       use Counter Mate for  SI_Tice1     Diagnostic #    229  SI_Fract
 Computing Diagnostic #    234  SI_Tice2     Counter:      10   Parms: SM  C   M1      
       use Counter Mate for  SI_Tice2     Diagnostic #    229  SI_Fract
 Computing Diagnostic #    235  SI_Qice1     Counter:      10   Parms: SM  C   M1      
       use Counter Mate for  SI_Qice1     Diagnostic #    230  SI_Thick
 Computing Diagnostic #    236  SI_Qice2     Counter:      10   Parms: SM  C   M1      
       use Counter Mate for  SI_Qice2     Diagnostic #    230  SI_Thick
 Computing Diagnostic #    237  SIsnwAge     Counter:      10   Parms: SM P    M1      
 Computing Diagnostic #    240  SIsnwPrc     Counter:      10   Parms: SM  C   M1      
       use Counter Mate for  SIsnwPrc     Diagnostic #    238  SI_FrcFx
 Computing Diagnostic #    239  SIalbedo     Counter:      10   Parms: SM PC   M1      
       use Counter Mate for  SIalbedo     Diagnostic #    238  SI_FrcFx
 Computing Diagnostic #    243  SIflx2oc     Counter:      10   Parms: SM      M1      
 Computing Diagnostic #    244  SIfrw2oc     Counter:      10   Parms: SM      M1      
 Computing Diagnostic #    245  SIsaltFx     Counter:      10   Parms: SM      M1      
(PID.TID 0000.0001) DIAGSTATS_CLOSE_IO: close file: dynStDiag.0000000000.txt , unit=     9
(PID.TID 0000.0001) DIAGSTATS_CLOSE_IO: close file: landStDiag.0000000000.txt , unit=    10
(PID.TID 0000.0001) DIAGSTATS_CLOSE_IO: close file: thSIceStDiag.0000000000.txt , unit=    16
(PID.TID 0000.0001) %CHECKPOINT        10 ckptA
(PID.TID 0000.0001)   Seconds in section "ALL                    [THE_MODEL_MAIN]":
(PID.TID 0000.0001)           User time:   7.2500000000000000
(PID.TID 0000.0001)         System time:  4.00000000000000008E-002
(PID.TID 0000.0001)     Wall clock time:   7.3083240985870361
(PID.TID 0000.0001)          No. starts:           1
(PID.TID 0000.0001)           No. stops:           1
(PID.TID 0000.0001)   Seconds in section "INITIALISE_FIXED       [THE_MODEL_MAIN]":
(PID.TID 0000.0001)           User time:  0.19000000000000000
(PID.TID 0000.0001)         System time:  1.00000000000000002E-002
(PID.TID 0000.0001)     Wall clock time:  0.20264101028442383
(PID.TID 0000.0001)          No. starts:           1
(PID.TID 0000.0001)           No. stops:           1
(PID.TID 0000.0001)   Seconds in section "THE_MAIN_LOOP          [THE_MODEL_MAIN]":
(PID.TID 0000.0001)           User time:   7.0599999999999996
(PID.TID 0000.0001)         System time:  2.99999999999999989E-002
(PID.TID 0000.0001)     Wall clock time:   7.1056358814239502
(PID.TID 0000.0001)          No. starts:           1
(PID.TID 0000.0001)           No. stops:           1
(PID.TID 0000.0001)   Seconds in section "INITIALISE_VARIA    [THE_MAIN_LOOP]":
(PID.TID 0000.0001)           User time:  0.23999999999999999
(PID.TID 0000.0001)         System time:  1.00000000000000002E-002
(PID.TID 0000.0001)     Wall clock time:  0.25849294662475586
(PID.TID 0000.0001)          No. starts:           1
(PID.TID 0000.0001)           No. stops:           1
(PID.TID 0000.0001)   Seconds in section "MAIN LOOP           [THE_MAIN_LOOP]":
(PID.TID 0000.0001)           User time:   6.8200000000000003
(PID.TID 0000.0001)         System time:  2.00000000000000004E-002
(PID.TID 0000.0001)     Wall clock time:   6.8471119403839111
(PID.TID 0000.0001)          No. starts:           1
(PID.TID 0000.0001)           No. stops:           1
(PID.TID 0000.0001)   Seconds in section "FORWARD_STEP        [THE_MAIN_LOOP]":
(PID.TID 0000.0001)           User time:   6.8199999999999985
(PID.TID 0000.0001)         System time:  1.99999999999999969E-002
(PID.TID 0000.0001)     Wall clock time:   6.8470079898834229
(PID.TID 0000.0001)          No. starts:          10
(PID.TID 0000.0001)           No. stops:          10
(PID.TID 0000.0001)   Seconds in section "DO_STATEVARS_DIAGS  [FORWARD_STEP]":
(PID.TID 0000.0001)           User time:  0.33000000000000096
(PID.TID 0000.0001)         System time:  9.99999999999999500E-003
(PID.TID 0000.0001)     Wall clock time:  0.34894895553588867
(PID.TID 0000.0001)          No. starts:          30
(PID.TID 0000.0001)           No. stops:          30
(PID.TID 0000.0001)   Seconds in section "LOAD_FIELDS_DRIVER  [FORWARD_STEP]":
(PID.TID 0000.0001)           User time:  1.99999999999995737E-002
(PID.TID 0000.0001)         System time:   0.0000000000000000
(PID.TID 0000.0001)     Wall clock time:  1.45502090454101563E-002
(PID.TID 0000.0001)          No. starts:          10
(PID.TID 0000.0001)           No. stops:          10
(PID.TID 0000.0001)   Seconds in section "EXTERNAL_FLDS_LOAD [LOAD_FLDS_DRIVER]":
(PID.TID 0000.0001)           User time:   0.0000000000000000
(PID.TID 0000.0001)         System time:   0.0000000000000000
(PID.TID 0000.0001)     Wall clock time:  1.06334686279296875E-004
(PID.TID 0000.0001)          No. starts:          10
(PID.TID 0000.0001)           No. stops:          10
(PID.TID 0000.0001)   Seconds in section "DO_ATMOSPHERIC_PHYS [FORWARD_STEP]":
(PID.TID 0000.0001)           User time:   1.0800000000000010
(PID.TID 0000.0001)         System time:   0.0000000000000000
(PID.TID 0000.0001)     Wall clock time:   1.0467779636383057
(PID.TID 0000.0001)          No. starts:          10
(PID.TID 0000.0001)           No. stops:          10
(PID.TID 0000.0001)   Seconds in section "AIM_DO_PHYSICS [DO_ATMOSPHERIC_PHYS]":
(PID.TID 0000.0001)           User time:   1.0800000000000010
(PID.TID 0000.0001)         System time:   0.0000000000000000
(PID.TID 0000.0001)     Wall clock time:   1.0465660095214844
(PID.TID 0000.0001)          No. starts:          10
(PID.TID 0000.0001)           No. stops:          10
(PID.TID 0000.0001)   Seconds in section "DO_OCEANIC_PHYS     [FORWARD_STEP]":
(PID.TID 0000.0001)           User time:   0.0000000000000000
(PID.TID 0000.0001)         System time:   0.0000000000000000
(PID.TID 0000.0001)     Wall clock time:  5.29527664184570313E-004
(PID.TID 0000.0001)          No. starts:          10
(PID.TID 0000.0001)           No. stops:          10
(PID.TID 0000.0001)   Seconds in section "DYNAMICS            [FORWARD_STEP]":
(PID.TID 0000.0001)           User time:   1.4199999999999990
(PID.TID 0000.0001)         System time:   0.0000000000000000
(PID.TID 0000.0001)     Wall clock time:   1.4626483917236328
(PID.TID 0000.0001)          No. starts:          10
(PID.TID 0000.0001)           No. stops:          10
(PID.TID 0000.0001)   Seconds in section "UPDATE_R_STAR       [FORWARD_STEP]":
(PID.TID 0000.0001)           User time:  8.99999999999998579E-002
(PID.TID 0000.0001)         System time:   0.0000000000000000
(PID.TID 0000.0001)     Wall clock time:  7.73496627807617188E-002
(PID.TID 0000.0001)          No. starts:          10
(PID.TID 0000.0001)           No. stops:          10
(PID.TID 0000.0001)   Seconds in section "UPDATE_CG2D         [FORWARD_STEP]":
(PID.TID 0000.0001)           User time:  8.00000000000000711E-002
(PID.TID 0000.0001)         System time:   0.0000000000000000
(PID.TID 0000.0001)     Wall clock time:  5.12590408325195313E-002
(PID.TID 0000.0001)          No. starts:          10
(PID.TID 0000.0001)           No. stops:          10
(PID.TID 0000.0001)   Seconds in section "SOLVE_FOR_PRESSURE  [FORWARD_STEP]":
(PID.TID 0000.0001)           User time:  0.45000000000000107
(PID.TID 0000.0001)         System time:   0.0000000000000000
(PID.TID 0000.0001)     Wall clock time:  0.48122811317443848
(PID.TID 0000.0001)          No. starts:          10
(PID.TID 0000.0001)           No. stops:          10
(PID.TID 0000.0001)   Seconds in section "MOM_CORRECTION_STEP [FORWARD_STEP]":
(PID.TID 0000.0001)           User time:  0.48000000000000043
(PID.TID 0000.0001)         System time:   0.0000000000000000
(PID.TID 0000.0001)     Wall clock time:  0.48126196861267090
(PID.TID 0000.0001)          No. starts:          10
(PID.TID 0000.0001)           No. stops:          10
(PID.TID 0000.0001)   Seconds in section "SHAP_FILT_UV       [MOM_CORR_STEP]":
(PID.TID 0000.0001)           User time:  0.41000000000000014
(PID.TID 0000.0001)         System time:   0.0000000000000000
(PID.TID 0000.0001)     Wall clock time:  0.43961381912231445
(PID.TID 0000.0001)          No. starts:          10
(PID.TID 0000.0001)           No. stops:          10
(PID.TID 0000.0001)   Seconds in section "INTEGR_CONTINUITY   [FORWARD_STEP]":
(PID.TID 0000.0001)           User time:  0.12999999999999901
(PID.TID 0000.0001)         System time:   0.0000000000000000
(PID.TID 0000.0001)     Wall clock time:  0.12913417816162109
(PID.TID 0000.0001)          No. starts:          10
(PID.TID 0000.0001)           No. stops:          10
(PID.TID 0000.0001)   Seconds in section "CALC_R_STAR         [FORWARD_STEP]":
(PID.TID 0000.0001)           User time:  5.99999999999987210E-002
(PID.TID 0000.0001)         System time:   0.0000000000000000
(PID.TID 0000.0001)     Wall clock time:  4.55560684204101563E-002
(PID.TID 0000.0001)          No. starts:          10
(PID.TID 0000.0001)           No. stops:          10
(PID.TID 0000.0001)   Seconds in section "BLOCKING_EXCHANGES  [FORWARD_STEP]":
(PID.TID 0000.0001)           User time:  9.99999999999978684E-003
(PID.TID 0000.0001)         System time:   0.0000000000000000
(PID.TID 0000.0001)     Wall clock time:  3.63919734954833984E-002
(PID.TID 0000.0001)          No. starts:          20
(PID.TID 0000.0001)           No. stops:          20
(PID.TID 0000.0001)   Seconds in section "THERMODYNAMICS      [FORWARD_STEP]":
(PID.TID 0000.0001)           User time:  0.81000000000000139
(PID.TID 0000.0001)         System time:   0.0000000000000000
(PID.TID 0000.0001)     Wall clock time:  0.82073402404785156
(PID.TID 0000.0001)          No. starts:          10
(PID.TID 0000.0001)           No. stops:          10
(PID.TID 0000.0001)   Seconds in section "TRC_CORRECTION_STEP [FORWARD_STEP]":
(PID.TID 0000.0001)           User time:  0.49999999999999911
(PID.TID 0000.0001)         System time:   0.0000000000000000
(PID.TID 0000.0001)     Wall clock time:  0.50416326522827148
(PID.TID 0000.0001)          No. starts:          10
(PID.TID 0000.0001)           No. stops:          10
(PID.TID 0000.0001)   Seconds in section "SHAP_FILT_TS       [TRC_CORR_STEP]":
(PID.TID 0000.0001)           User time:  0.49999999999999911
(PID.TID 0000.0001)         System time:   0.0000000000000000
(PID.TID 0000.0001)     Wall clock time:  0.48634004592895508
(PID.TID 0000.0001)          No. starts:          10
(PID.TID 0000.0001)           No. stops:          10
(PID.TID 0000.0001)   Seconds in section "DO_STATEVARS_TAVE   [FORWARD_STEP]":
(PID.TID 0000.0001)           User time:  0.36999999999999922
(PID.TID 0000.0001)         System time:   0.0000000000000000
(PID.TID 0000.0001)     Wall clock time:  0.33570265769958496
(PID.TID 0000.0001)          No. starts:          10
(PID.TID 0000.0001)           No. stops:          10
(PID.TID 0000.0001)   Seconds in section "MONITOR             [FORWARD_STEP]":
(PID.TID 0000.0001)           User time:  0.70999999999999996
(PID.TID 0000.0001)         System time:   0.0000000000000000
(PID.TID 0000.0001)     Wall clock time:  0.71643972396850586
(PID.TID 0000.0001)          No. starts:          10
(PID.TID 0000.0001)           No. stops:          10
(PID.TID 0000.0001)   Seconds in section "DO_THE_MODEL_IO     [FORWARD_STEP]":
(PID.TID 0000.0001)           User time:  0.24999999999999911
(PID.TID 0000.0001)         System time:   0.0000000000000000
(PID.TID 0000.0001)     Wall clock time:  0.25815534591674805
(PID.TID 0000.0001)          No. starts:          10
(PID.TID 0000.0001)           No. stops:          10
(PID.TID 0000.0001)   Seconds in section "DO_WRITE_PICKUP     [FORWARD_STEP]":
(PID.TID 0000.0001)           User time:  3.00000000000002487E-002
(PID.TID 0000.0001)         System time:  1.00000000000000019E-002
(PID.TID 0000.0001)     Wall clock time:  3.38289737701416016E-002
(PID.TID 0000.0001)          No. starts:          10
(PID.TID 0000.0001)           No. stops:          10
(PID.TID 0000.0001) // ======================================================
(PID.TID 0000.0001) // Tile <-> Tile communication statistics
(PID.TID 0000.0001) // ======================================================
(PID.TID 0000.0001) // o Tile number: 000001
(PID.TID 0000.0001) //         No. X exchanges =              0
(PID.TID 0000.0001) //            Max. X spins =              0
(PID.TID 0000.0001) //            Min. X spins =     1000000000
(PID.TID 0000.0001) //          Total. X spins =              0
(PID.TID 0000.0001) //            Avg. X spins =       0.00E+00
(PID.TID 0000.0001) //         No. Y exchanges =              0
(PID.TID 0000.0001) //            Max. Y spins =              0
(PID.TID 0000.0001) //            Min. Y spins =     1000000000
(PID.TID 0000.0001) //          Total. Y spins =              0
(PID.TID 0000.0001) //            Avg. Y spins =       0.00E+00
(PID.TID 0000.0001) // o Tile number: 000002
(PID.TID 0000.0001) //         No. X exchanges =              0
(PID.TID 0000.0001) //            Max. X spins =              0
(PID.TID 0000.0001) //            Min. X spins =     1000000000
(PID.TID 0000.0001) //          Total. X spins =              0
(PID.TID 0000.0001) //            Avg. X spins =       0.00E+00
(PID.TID 0000.0001) //         No. Y exchanges =              0
(PID.TID 0000.0001) //            Max. Y spins =              0
(PID.TID 0000.0001) //            Min. Y spins =     1000000000
(PID.TID 0000.0001) //          Total. Y spins =              0
(PID.TID 0000.0001) //            Avg. Y spins =       0.00E+00
(PID.TID 0000.0001) // o Tile number: 000003
(PID.TID 0000.0001) //         No. X exchanges =              0
(PID.TID 0000.0001) //            Max. X spins =              0
(PID.TID 0000.0001) //            Min. X spins =     1000000000
(PID.TID 0000.0001) //          Total. X spins =              0
(PID.TID 0000.0001) //            Avg. X spins =       0.00E+00
(PID.TID 0000.0001) //         No. Y exchanges =              0
(PID.TID 0000.0001) //            Max. Y spins =              0
(PID.TID 0000.0001) //            Min. Y spins =     1000000000
(PID.TID 0000.0001) //          Total. Y spins =              0
(PID.TID 0000.0001) //            Avg. Y spins =       0.00E+00
(PID.TID 0000.0001) // o Tile number: 000004
(PID.TID 0000.0001) //         No. X exchanges =              0
(PID.TID 0000.0001) //            Max. X spins =              0
(PID.TID 0000.0001) //            Min. X spins =     1000000000
(PID.TID 0000.0001) //          Total. X spins =              0
(PID.TID 0000.0001) //            Avg. X spins =       0.00E+00
(PID.TID 0000.0001) //         No. Y exchanges =              0
(PID.TID 0000.0001) //            Max. Y spins =              0
(PID.TID 0000.0001) //            Min. Y spins =     1000000000
(PID.TID 0000.0001) //          Total. Y spins =              0
(PID.TID 0000.0001) //            Avg. Y spins =       0.00E+00
(PID.TID 0000.0001) // o Tile number: 000005
(PID.TID 0000.0001) //         No. X exchanges =              0
(PID.TID 0000.0001) //            Max. X spins =              0
(PID.TID 0000.0001) //            Min. X spins =     1000000000
(PID.TID 0000.0001) //          Total. X spins =              0
(PID.TID 0000.0001) //            Avg. X spins =       0.00E+00
(PID.TID 0000.0001) //         No. Y exchanges =              0
(PID.TID 0000.0001) //            Max. Y spins =              0
(PID.TID 0000.0001) //            Min. Y spins =     1000000000
(PID.TID 0000.0001) //          Total. Y spins =              0
(PID.TID 0000.0001) //            Avg. Y spins =       0.00E+00
(PID.TID 0000.0001) // o Tile number: 000006
(PID.TID 0000.0001) //         No. X exchanges =              0
(PID.TID 0000.0001) //            Max. X spins =              0
(PID.TID 0000.0001) //            Min. X spins =     1000000000
(PID.TID 0000.0001) //          Total. X spins =              0
(PID.TID 0000.0001) //            Avg. X spins =       0.00E+00
(PID.TID 0000.0001) //         No. Y exchanges =              0
(PID.TID 0000.0001) //            Max. Y spins =              0
(PID.TID 0000.0001) //            Min. Y spins =     1000000000
(PID.TID 0000.0001) //          Total. Y spins =              0
(PID.TID 0000.0001) //            Avg. Y spins =       0.00E+00
(PID.TID 0000.0001) // o Thread number: 000001
(PID.TID 0000.0001) //            No. barriers =          10250
(PID.TID 0000.0001) //      Max. barrier spins =              1
(PID.TID 0000.0001) //      Min. barrier spins =              1
(PID.TID 0000.0001) //     Total barrier spins =          10250
(PID.TID 0000.0001) //      Avg. barrier spins =       1.00E+00
PROGRAM MAIN: Execution ended Normally
