(PID.TID 0000.0001) 
(PID.TID 0000.0001) // ======================================================
(PID.TID 0000.0001) //                      MITgcm UV
(PID.TID 0000.0001) //                      =========
(PID.TID 0000.0001) // ======================================================
(PID.TID 0000.0001) // execution environment starting up...
(PID.TID 0000.0001) 
(PID.TID 0000.0001) // MITgcmUV version:  checkpoint64f
(PID.TID 0000.0001) // Build user:        jmc
(PID.TID 0000.0001) // Build host:        baudelaire
(PID.TID 0000.0001) // Build date:        Thu Apr 11 15:50:54 EDT 2013
(PID.TID 0000.0001) 
(PID.TID 0000.0001) // =======================================================
(PID.TID 0000.0001) // Execution Environment parameter file "eedata"
(PID.TID 0000.0001) // =======================================================
(PID.TID 0000.0001) ># Example "eedata" file
(PID.TID 0000.0001) ># Lines beginning "#" are comments
(PID.TID 0000.0001) ># nTx - No. threads per process in X
(PID.TID 0000.0001) ># nTy - No. threads per process in Y
(PID.TID 0000.0001) > &EEPARMS
(PID.TID 0000.0001) > /
(PID.TID 0000.0001) ># Note: Some systems use & as the
(PID.TID 0000.0001) ># namelist terminator. Other systems
(PID.TID 0000.0001) ># use a / character (as shown here).
(PID.TID 0000.0001) 
(PID.TID 0000.0001) // =======================================================
(PID.TID 0000.0001) // Computational Grid Specification ( see files "SIZE.h" )
(PID.TID 0000.0001) //                                  ( and "eedata"       )
(PID.TID 0000.0001) // =======================================================
(PID.TID 0000.0001)      nPx =    1 ; /* No. processes in X */
(PID.TID 0000.0001)      nPy =    1 ; /* No. processes in Y */
(PID.TID 0000.0001)      nSx =    1 ; /* No. tiles in X per process */
(PID.TID 0000.0001)      nSy =    2 ; /* No. tiles in Y per process */
(PID.TID 0000.0001)      sNx =   50 ; /* Tile size in X */
(PID.TID 0000.0001)      sNy =   50 ; /* Tile size in Y */
(PID.TID 0000.0001)      OLx =    3 ; /* Tile overlap distance in X */
(PID.TID 0000.0001)      OLy =    3 ; /* Tile overlap distance in Y */
(PID.TID 0000.0001)      nTx =    1 ; /* No. threads in X per process */
(PID.TID 0000.0001)      nTy =    1 ; /* No. threads in Y per process */
(PID.TID 0000.0001)       Nr =   30 ; /* No. levels in the vertical   */
(PID.TID 0000.0001)       Nx =   50 ; /* Total domain size in X ( = nPx*nSx*sNx ) */
(PID.TID 0000.0001)       Ny =  100 ; /* Total domain size in Y ( = nPy*nSy*sNy ) */
(PID.TID 0000.0001)   nTiles =    2 ; /* Total no. tiles per process ( = nSx*nSy ) */
(PID.TID 0000.0001)   nProcs =    1 ; /* Total no. processes ( = nPx*nPy ) */
(PID.TID 0000.0001) nThreads =    1 ; /* Total no. threads per process ( = nTx*nTy ) */
(PID.TID 0000.0001) usingMPI =    F ; /* Flag used to control whether MPI is in use */
(PID.TID 0000.0001)                   /*  note: To execute a program with MPI calls */
(PID.TID 0000.0001)                   /*  it must be launched appropriately e.g     */
(PID.TID 0000.0001)                   /*  "mpirun -np 64 ......"                    */
(PID.TID 0000.0001) useCoupler=    F ;/* Flag used to control communications with   */
(PID.TID 0000.0001)                   /*  other model components, through a coupler */
(PID.TID 0000.0001) debugMode =    F ; /* print debug msg. (sequence of S/R calls)  */
(PID.TID 0000.0001) printMapIncludesZeros=    F ; /* print zeros in Std.Output maps */
(PID.TID 0000.0001) maxLengthPrt1D=   65 /* maxLength of 1D array printed to StdOut */
(PID.TID 0000.0001) 
(PID.TID 0000.0001) // ======================================================
(PID.TID 0000.0001) // Mapping of tiles to threads
(PID.TID 0000.0001) // ======================================================
(PID.TID 0000.0001) // -o- Thread   1, tiles (   1:   1,   1:   2)
(PID.TID 0000.0001) 
(PID.TID 0000.0001) // ======================================================
(PID.TID 0000.0001) // Tile <-> Tile connectvity table
(PID.TID 0000.0001) // ======================================================
(PID.TID 0000.0001) // Tile number: 000001 (process no. = 000000)
(PID.TID 0000.0001) //        WEST: Tile = 000001, Process = 000000, Comm = put
(PID.TID 0000.0001) //                bi = 000001, bj = 000001
(PID.TID 0000.0001) //        EAST: Tile = 000001, Process = 000000, Comm = put
(PID.TID 0000.0001) //                bi = 000001, bj = 000001
(PID.TID 0000.0001) //       SOUTH: Tile = 000002, Process = 000000, Comm = put
(PID.TID 0000.0001) //                bi = 000001, bj = 000002
(PID.TID 0000.0001) //       NORTH: Tile = 000002, Process = 000000, Comm = put
(PID.TID 0000.0001) //                bi = 000001, bj = 000002
(PID.TID 0000.0001) // Tile number: 000002 (process no. = 000000)
(PID.TID 0000.0001) //        WEST: Tile = 000002, Process = 000000, Comm = put
(PID.TID 0000.0001) //                bi = 000001, bj = 000002
(PID.TID 0000.0001) //        EAST: Tile = 000002, Process = 000000, Comm = put
(PID.TID 0000.0001) //                bi = 000001, bj = 000002
(PID.TID 0000.0001) //       SOUTH: Tile = 000001, Process = 000000, Comm = put
(PID.TID 0000.0001) //                bi = 000001, bj = 000001
(PID.TID 0000.0001) //       NORTH: Tile = 000001, Process = 000000, Comm = put
(PID.TID 0000.0001) //                bi = 000001, bj = 000001
(PID.TID 0000.0001) 
(PID.TID 0000.0001)  INI_PARMS: opening model parameter file "data"
(PID.TID 0000.0001)  OPEN_COPY_DATA_FILE: opening file data
(PID.TID 0000.0001) // =======================================================
(PID.TID 0000.0001) // Parameter file "data"
(PID.TID 0000.0001) // =======================================================
(PID.TID 0000.0001) ># ====================
(PID.TID 0000.0001) ># | Model parameters |
(PID.TID 0000.0001) ># ====================
(PID.TID 0000.0001) >#
(PID.TID 0000.0001) ># Continuous equation parameters
(PID.TID 0000.0001) > &PARM01
(PID.TID 0000.0001) > Tref = 30*-1.9,
(PID.TID 0000.0001) > Sref = 30*34.4,
(PID.TID 0000.0001) > viscAz=1.E-3,
(PID.TID 0000.0001) > viscAh=600.0,
(PID.TID 0000.0001) > no_slip_sides=.FALSE.,
(PID.TID 0000.0001) > no_slip_bottom=.FALSE.,
(PID.TID 0000.0001) > diffKhT=100.0,
(PID.TID 0000.0001) > diffKzT=5.E-5,
(PID.TID 0000.0001) > diffKhS=100.0,
(PID.TID 0000.0001) > diffKzS=5.E-5,
(PID.TID 0000.0001) > bottomDragQuadratic=2.5E-3,
(PID.TID 0000.0001) > eosType='JMD95Z',
(PID.TID 0000.0001) > HeatCapacity_cp = 3974.0,
(PID.TID 0000.0001) > rhoConst=1030.,
(PID.TID 0000.0001) > rhoNil=1030.,
(PID.TID 0000.0001) > gravity=9.81,
(PID.TID 0000.0001) > convertFW2Salt = 33.4,
(PID.TID 0000.0001) > rigidLid=.FALSE.,
(PID.TID 0000.0001) > implicitFreeSurface=.TRUE.,
(PID.TID 0000.0001) > exactConserv=.TRUE.,
(PID.TID 0000.0001) > hFacMin=0.05,
(PID.TID 0000.0001) > nonHydrostatic=.FALSE.,
(PID.TID 0000.0001) > readBinaryPrec=64,
(PID.TID 0000.0001) > useCDScheme = .TRUE.,
(PID.TID 0000.0001) > /
(PID.TID 0000.0001) >
(PID.TID 0000.0001) ># Elliptic solver parameters
(PID.TID 0000.0001) > &PARM02
(PID.TID 0000.0001) > cg2dMaxIters=1000,
(PID.TID 0000.0001) > cg2dTargetResidual=1.E-13,
(PID.TID 0000.0001) > cg3dMaxIters=400,
(PID.TID 0000.0001) > cg3dTargetResidual=1.E-13,
(PID.TID 0000.0001) > /
(PID.TID 0000.0001) >
(PID.TID 0000.0001) ># Time stepping parameters
(PID.TID 0000.0001) > &PARM03
(PID.TID 0000.0001) > nIter0=0,
(PID.TID 0000.0001) > nTimeSteps=20,
(PID.TID 0000.0001) > deltaT=1800.0,
(PID.TID 0000.0001) > abEps=0.1,
(PID.TID 0000.0001) > cAdjFreq = -1.,
(PID.TID 0000.0001) > tauCD = 400000.,
(PID.TID 0000.0001) > pChkptFreq=0.0,
(PID.TID 0000.0001) > chkptFreq=0.0,
(PID.TID 0000.0001) > dumpFreq=0.0,
(PID.TID 0000.0001) > taveFreq=0.0,
(PID.TID 0000.0001) > monitorFreq=1.,
(PID.TID 0000.0001) > monitorSelect=2,
(PID.TID 0000.0001) > /
(PID.TID 0000.0001) >
(PID.TID 0000.0001) ># Gridding parameters
(PID.TID 0000.0001) > &PARM04
(PID.TID 0000.0001) > usingSphericalPolarGrid=.TRUE.,
(PID.TID 0000.0001) > ygOrigin = -80.0,
(PID.TID 0000.0001) > delX=50*0.3,
(PID.TID 0000.0001) > delY=100*0.1,
(PID.TID 0000.0001) > delZ=30*30.0,
(PID.TID 0000.0001) > /
(PID.TID 0000.0001) >
(PID.TID 0000.0001) ># Input datasets
(PID.TID 0000.0001) > &PARM05
(PID.TID 0000.0001) > bathyFile='bathy.box',
(PID.TID 0000.0001) > /
(PID.TID 0000.0001) 
(PID.TID 0000.0001)  INI_PARMS ; starts to read PARM01
(PID.TID 0000.0001)  INI_PARMS ; read PARM01 : OK
(PID.TID 0000.0001)  INI_PARMS ; starts to read PARM02
(PID.TID 0000.0001)  INI_PARMS ; read PARM02 : OK
(PID.TID 0000.0001)  INI_PARMS ; starts to read PARM03
(PID.TID 0000.0001)  INI_PARMS ; read PARM03 : OK
(PID.TID 0000.0001)  INI_PARMS ; starts to read PARM04
(PID.TID 0000.0001)  INI_PARMS ; read PARM04 : OK
(PID.TID 0000.0001)  INI_PARMS ; starts to read PARM05
(PID.TID 0000.0001)  INI_PARMS ; read PARM05 : OK
(PID.TID 0000.0001)  INI_PARMS: finished reading file "data"
(PID.TID 0000.0001)  PACKAGES_BOOT: opening data.pkg
(PID.TID 0000.0001)  OPEN_COPY_DATA_FILE: opening file data.pkg
(PID.TID 0000.0001) // =======================================================
(PID.TID 0000.0001) // Parameter file "data.pkg"
(PID.TID 0000.0001) // =======================================================
(PID.TID 0000.0001) ># Packages
(PID.TID 0000.0001) > &PACKAGES
(PID.TID 0000.0001) > useDiagnostics = .TRUE.,
(PID.TID 0000.0001) > useShelfIce=.true.,
(PID.TID 0000.0001) > useIcefront=.true.,
(PID.TID 0000.0001) > /
(PID.TID 0000.0001) 
(PID.TID 0000.0001)  PACKAGES_BOOT: finished reading data.pkg
(PID.TID 0000.0001)  SHELFICE_READPARMS: opening data.shelfice
(PID.TID 0000.0001)  OPEN_COPY_DATA_FILE: opening file data.shelfice
(PID.TID 0000.0001) // =======================================================
(PID.TID 0000.0001) // Parameter file "data.shelfice"
(PID.TID 0000.0001) // =======================================================
(PID.TID 0000.0001) ># ===================================
(PID.TID 0000.0001) ># | Parameters for SHELFICE package |
(PID.TID 0000.0001) ># ===================================
(PID.TID 0000.0001) > &SHELFICE_PARM01
(PID.TID 0000.0001) > SHELFICEboundaryLayer = .TRUE.,
(PID.TID 0000.0001) > SHELFICEtopoFile='icetopo.exp1',
(PID.TID 0000.0001) > SHELFICEloadAnomalyFile = 'phi0surf.exp1.jmd95z',
(PID.TID 0000.0001) > SHELFICEconserve = .true.,
(PID.TID 0000.0001) > useISOMIPTD = .FALSE.,
(PID.TID 0000.0001) > no_slip_shelfice = .false.,
(PID.TID 0000.0001) > SHELFICEwriteState = .TRUE.,
(PID.TID 0000.0001) > /
(PID.TID 0000.0001) 
(PID.TID 0000.0001)  SHELFICE_READPARMS: finished reading data.shelfice
(PID.TID 0000.0001)  ICEFRONT_READPARMS: opening data.icefront
(PID.TID 0000.0001)  OPEN_COPY_DATA_FILE: opening file data.icefront
(PID.TID 0000.0001) // =======================================================
(PID.TID 0000.0001) // Parameter file "data.icefront"
(PID.TID 0000.0001) // =======================================================
(PID.TID 0000.0001) ># ===================================
(PID.TID 0000.0001) ># | Parameters for ICEFRONT package |
(PID.TID 0000.0001) ># ===================================
(PID.TID 0000.0001) > &ICEFRONT_PARM01
(PID.TID 0000.0001) > ICEFRONTdepthFile='frontdepth.xuyun',
(PID.TID 0000.0001) > ICEFRONTlengthFile = 'frontcircum.xuyun',
(PID.TID 0000.0001) > applyIcefrontTendT = .true.,
(PID.TID 0000.0001) > applyIcefrontTendS = .true.,
(PID.TID 0000.0001) > /
(PID.TID 0000.0001) 
(PID.TID 0000.0001)  ICEFRONT_READPARMS: finished reading data.icefront
(PID.TID 0000.0001)  DIAGNOSTICS_READPARMS: opening data.diagnostics
(PID.TID 0000.0001)  OPEN_COPY_DATA_FILE: opening file data.diagnostics
(PID.TID 0000.0001) // =======================================================
(PID.TID 0000.0001) // Parameter file "data.diagnostics"
(PID.TID 0000.0001) // =======================================================
(PID.TID 0000.0001) ># Diagnostic Package Choices
(PID.TID 0000.0001) >#--------------------
(PID.TID 0000.0001) >#  dumpAtLast (logical): always write output at the end of simulation (default=F)
(PID.TID 0000.0001) >#  diag_mnc   (logical): write to NetCDF files (default=useMNC)
(PID.TID 0000.0001) >#--for each output-stream:
(PID.TID 0000.0001) >#  fileName(n) : prefix of the output file name (max 80c long) for outp.stream n
(PID.TID 0000.0001) >#  frequency(n):< 0 : write snap-shot output every |frequency| seconds
(PID.TID 0000.0001) >#               > 0 : write time-average output every frequency seconds
(PID.TID 0000.0001) >#  timePhase(n)     : write at time = timePhase + multiple of |frequency|
(PID.TID 0000.0001) >#    averagingFreq  : frequency (in s) for periodic averaging interval
(PID.TID 0000.0001) >#    averagingPhase : phase     (in s) for periodic averaging interval
(PID.TID 0000.0001) >#    repeatCycle    : number of averaging intervals in 1 cycle
(PID.TID 0000.0001) >#  levels(:,n) : list of levels to write to file (Notes: declared as REAL)
(PID.TID 0000.0001) >#                when this entry is missing, select all common levels of this list
(PID.TID 0000.0001) >#  fields(:,n) : list of selected diagnostics fields (8.c) in outp.stream n
(PID.TID 0000.0001) >#                (see "available_diagnostics.log" file for the full list of diags)
(PID.TID 0000.0001) >#  missing_value(n) : missing value for real-type fields in output file "n"
(PID.TID 0000.0001) >#  fileFlags(n)     : specific code (8c string) for output file "n"
(PID.TID 0000.0001) >#--------------------
(PID.TID 0000.0001) > &DIAGNOSTICS_LIST
(PID.TID 0000.0001) >  fields(1:2,1)  = 'SHIfwFlx','SHIhtFlx',
(PID.TID 0000.0001) >   fileName(1) = 'shelficeDiag',
(PID.TID 0000.0001) >  frequency(1) = 18000.,
(PID.TID 0000.0001) >  fields(1:2,2)  = 'ICFfwFlx','ICFhtFlx',
(PID.TID 0000.0001) >   fileName(2) = 'icefrontDiag',
(PID.TID 0000.0001) >  frequency(2) = 18000.,
(PID.TID 0000.0001) > /
(PID.TID 0000.0001) >
(PID.TID 0000.0001) >#--------------------
(PID.TID 0000.0001) ># Parameter for Diagnostics of per level statistics:
(PID.TID 0000.0001) >#--------------------
(PID.TID 0000.0001) >#  diagSt_mnc (logical): write stat-diags to NetCDF files (default=diag_mnc)
(PID.TID 0000.0001) >#  diagSt_regMaskFile : file containing the region-mask to read-in
(PID.TID 0000.0001) >#  nSetRegMskFile   : number of region-mask sets within the region-mask file
(PID.TID 0000.0001) >#  set_regMask(i)   : region-mask set-index that identifies the region "i"
(PID.TID 0000.0001) >#  val_regMask(i)   : region "i" identifier value in the region mask
(PID.TID 0000.0001) >#--for each output-stream:
(PID.TID 0000.0001) >#  stat_fName(n) : prefix of the output file name (max 80c long) for outp.stream n
(PID.TID 0000.0001) >#  stat_freq(n):< 0 : write snap-shot output every |stat_freq| seconds
(PID.TID 0000.0001) >#               > 0 : write time-average output every stat_freq seconds
(PID.TID 0000.0001) >#  stat_phase(n)    : write at time = stat_phase + multiple of |stat_freq|
(PID.TID 0000.0001) >#  stat_region(:,n) : list of "regions" (default: 1 region only=global)
(PID.TID 0000.0001) >#  stat_fields(:,n) : list of selected diagnostics fields (8.c) in outp.stream n
(PID.TID 0000.0001) >#                (see "available_diagnostics.log" file for the full list of diags)
(PID.TID 0000.0001) >#--------------------
(PID.TID 0000.0001) > &DIAG_STATIS_PARMS
(PID.TID 0000.0001) >#stat_fields(1:5,1)  = 'ETAN    ','UVEL    ','VVEL    ','WVEL    ', 'THETA   ',
(PID.TID 0000.0001) ># stat_fName(1) = 'dynStDiag',
(PID.TID 0000.0001) >#  stat_freq(1) = -3600.,
(PID.TID 0000.0001) ># stat_phase(1) = 0.,
(PID.TID 0000.0001) > /
(PID.TID 0000.0001) 
(PID.TID 0000.0001) S/R DIAGNOSTICS_READPARMS, read namelist "diagnostics_list": start
(PID.TID 0000.0001) S/R DIAGNOSTICS_READPARMS, read namelist "diagnostics_list": OK
(PID.TID 0000.0001) S/R DIAGNOSTICS_READPARMS, read namelist "DIAG_STATIS_PARMS": start
(PID.TID 0000.0001) S/R DIAGNOSTICS_READPARMS, read namelist "DIAG_STATIS_PARMS": OK
(PID.TID 0000.0001)  DIAGNOSTICS_READPARMS: global parameter summary:
(PID.TID 0000.0001)  dumpAtLast = /* always write time-ave diags at the end */
(PID.TID 0000.0001)                   F
(PID.TID 0000.0001)     ;
(PID.TID 0000.0001)  diag_mnc =   /* write NetCDF output files */
(PID.TID 0000.0001)                   F
(PID.TID 0000.0001)     ;
(PID.TID 0000.0001)  useMissingValue = /* put MissingValue where mask = 0 */
(PID.TID 0000.0001)                   F
(PID.TID 0000.0001)     ;
(PID.TID 0000.0001)  diagCG_maxIters = /* max number of iters in diag_cg2d */
(PID.TID 0000.0001)                    1000
(PID.TID 0000.0001)     ;
(PID.TID 0000.0001)  diagCG_resTarget = /* residual target for diag_cg2d */
(PID.TID 0000.0001)                 1.000000000000000E-13
(PID.TID 0000.0001)     ;
(PID.TID 0000.0001) -----------------------------------------------------
(PID.TID 0000.0001)  DIAGNOSTICS_READPARMS: active diagnostics summary:
(PID.TID 0000.0001) -----------------------------------------------------
(PID.TID 0000.0001) Creating Output Stream: shelficeDiag
(PID.TID 0000.0001) Output Frequency:      18000.000000 ; Phase:           0.000000
(PID.TID 0000.0001)  Averaging Freq.:      18000.000000 , Phase:           0.000000 , Cycle:   1
(PID.TID 0000.0001)  missing value: -9.990000000000E+02
(PID.TID 0000.0001)  Levels:    will be set later
(PID.TID 0000.0001)  Fields:    SHIfwFlx SHIhtFlx
(PID.TID 0000.0001) Creating Output Stream: icefrontDiag
(PID.TID 0000.0001) Output Frequency:      18000.000000 ; Phase:           0.000000
(PID.TID 0000.0001)  Averaging Freq.:      18000.000000 , Phase:           0.000000 , Cycle:   1
(PID.TID 0000.0001)  missing value: -9.990000000000E+02
(PID.TID 0000.0001)  Levels:    will be set later
(PID.TID 0000.0001)  Fields:    ICFfwFlx ICFhtFlx
(PID.TID 0000.0001) -----------------------------------------------------
(PID.TID 0000.0001)  DIAGNOSTICS_READPARMS: statistics diags. summary:
(PID.TID 0000.0001) -----------------------------------------------------
(PID.TID 0000.0001) 
(PID.TID 0000.0001) SET_PARMS: done
(PID.TID 0000.0001) Enter INI_VERTICAL_GRID: setInterFDr=    T ; setCenterDr=    F
(PID.TID 0000.0001) %MON XC_max                       =   1.4850000000000E+01
(PID.TID 0000.0001) %MON XC_min                       =   1.5000000000000E-01
(PID.TID 0000.0001) %MON XC_mean                      =   7.5000000000000E+00
(PID.TID 0000.0001) %MON XC_sd                        =   4.3292609068985E+00
(PID.TID 0000.0001) %MON XG_max                       =   1.4700000000000E+01
(PID.TID 0000.0001) %MON XG_min                       =   1.1102230246252E-16
(PID.TID 0000.0001) %MON XG_mean                      =   7.3500000000000E+00
(PID.TID 0000.0001) %MON XG_sd                        =   4.3292609068985E+00
(PID.TID 0000.0001) %MON DXC_max                      =   1.1380125394806E+04
(PID.TID 0000.0001) %MON DXC_min                      =   5.8203914905589E+03
(PID.TID 0000.0001) %MON DXC_mean                     =   8.6215028627206E+03
(PID.TID 0000.0001) %MON DXC_sd                       =   1.6219001271572E+03
(PID.TID 0000.0001) %MON DXF_max                      =   1.1380125394806E+04
(PID.TID 0000.0001) %MON DXF_min                      =   5.8203914905589E+03
(PID.TID 0000.0001) %MON DXF_mean                     =   8.6215028627206E+03
(PID.TID 0000.0001) %MON DXF_sd                       =   1.6219001271572E+03
(PID.TID 0000.0001) %MON DXG_max                      =   1.1352761512017E+04
(PID.TID 0000.0001) %MON DXG_min                      =   5.7917296935586E+03
(PID.TID 0000.0001) %MON DXG_mean                     =   8.5934208253080E+03
(PID.TID 0000.0001) %MON DXG_sd                       =   1.6222785520817E+03
(PID.TID 0000.0001) %MON DXV_max                      =   1.1352761512017E+04
(PID.TID 0000.0001) %MON DXV_min                      =   5.7917296935586E+03
(PID.TID 0000.0001) %MON DXV_mean                     =   8.5934208253080E+03
(PID.TID 0000.0001) %MON DXV_sd                       =   1.6222785520817E+03
(PID.TID 0000.0001) %MON YC_max                       =  -7.0050000000001E+01
(PID.TID 0000.0001) %MON YC_min                       =  -7.9950000000000E+01
(PID.TID 0000.0001) %MON YC_mean                      =  -7.5000000000000E+01
(PID.TID 0000.0001) %MON YC_sd                        =   2.8866070047720E+00
(PID.TID 0000.0001) %MON YG_max                       =  -7.0100000000001E+01
(PID.TID 0000.0001) %MON YG_min                       =  -8.0000000000000E+01
(PID.TID 0000.0001) %MON YG_mean                      =  -7.5050000000000E+01
(PID.TID 0000.0001) %MON YG_sd                        =   2.8866070047720E+00
(PID.TID 0000.0001) %MON DYC_max                      =   1.1117747335204E+04
(PID.TID 0000.0001) %MON DYC_min                      =   1.1117747335204E+04
(PID.TID 0000.0001) %MON DYC_mean                     =   1.1117747335203E+04
(PID.TID 0000.0001) %MON DYC_sd                       =   6.0754246078432E-10
(PID.TID 0000.0001) %MON DYF_max                      =   1.1117747335204E+04
(PID.TID 0000.0001) %MON DYF_min                      =   1.1117747335204E+04
(PID.TID 0000.0001) %MON DYF_mean                     =   1.1117747335203E+04
(PID.TID 0000.0001) %MON DYF_sd                       =   6.0754246078432E-10
(PID.TID 0000.0001) %MON DYG_max                      =   1.1117747335204E+04
(PID.TID 0000.0001) %MON DYG_min                      =   1.1117747335204E+04
(PID.TID 0000.0001) %MON DYG_mean                     =   1.1117747335203E+04
(PID.TID 0000.0001) %MON DYG_sd                       =   6.0754246078432E-10
(PID.TID 0000.0001) %MON DYU_max                      =   1.1117747335204E+04
(PID.TID 0000.0001) %MON DYU_min                      =   1.1117747335204E+04
(PID.TID 0000.0001) %MON DYU_mean                     =   1.1117747335203E+04
(PID.TID 0000.0001) %MON DYU_sd                       =   6.0754246078432E-10
(PID.TID 0000.0001) %MON RA_max                       =   1.2652134272379E+08
(PID.TID 0000.0001) %MON RA_min                       =   6.4709633770803E+07
(PID.TID 0000.0001) %MON RA_mean                      =   9.5851678311588E+07
(PID.TID 0000.0001) %MON RA_sd                        =   1.8031873527991E+07
(PID.TID 0000.0001) %MON RAW_max                      =   1.2652134272379E+08
(PID.TID 0000.0001) %MON RAW_min                      =   6.4709633770803E+07
(PID.TID 0000.0001) %MON RAW_mean                     =   9.5851678311588E+07
(PID.TID 0000.0001) %MON RAW_sd                       =   1.8031873527991E+07
(PID.TID 0000.0001) %MON RAS_max                      =   1.2621711802744E+08
(PID.TID 0000.0001) %MON RAS_min                      =   6.4390979194019E+07
(PID.TID 0000.0001) %MON RAS_mean                     =   9.5539469354603E+07
(PID.TID 0000.0001) %MON RAS_sd                       =   1.8036080760153E+07
(PID.TID 0000.0001) %MON RAZ_max                      =   1.2621711802744E+08
(PID.TID 0000.0001) %MON RAZ_min                      =   6.4390979194019E+07
(PID.TID 0000.0001) %MON RAZ_mean                     =   9.5539469354603E+07
(PID.TID 0000.0001) %MON RAZ_sd                       =   1.8036080760153E+07
(PID.TID 0000.0001) %MON AngleCS_max                  =   1.0000000000000E+00
(PID.TID 0000.0001) %MON AngleCS_min                  =   1.0000000000000E+00
(PID.TID 0000.0001) %MON AngleCS_mean                 =   1.0000000000000E+00
(PID.TID 0000.0001) %MON AngleCS_sd                   =   0.0000000000000E+00
(PID.TID 0000.0001) %MON AngleSN_max                  =   0.0000000000000E+00
(PID.TID 0000.0001) %MON AngleSN_min                  =   0.0000000000000E+00
(PID.TID 0000.0001) %MON AngleSN_mean                 =   0.0000000000000E+00
(PID.TID 0000.0001) %MON AngleSN_sd                   =   0.0000000000000E+00
(PID.TID 0000.0001)  MDS_READ_FIELD: opening global file: bathy.box
(PID.TID 0000.0001)  MDS_READ_FIELD: opening global file: icetopo.exp1
(PID.TID 0000.0001) // =======================================================
(PID.TID 0000.0001) // Field Model R_low (ini_masks_etc)
(PID.TID 0000.0001) // CMIN =         -9.000000000000000E+02
(PID.TID 0000.0001) // CMAX =         -9.000000000000000E+02
(PID.TID 0000.0001) // CINT =          0.000000000000000E+00
(PID.TID 0000.0001) // SYMBOLS (CMIN->CMAX): -abcdefghijklmnopqrstuvwxyz+
(PID.TID 0000.0001) //                  0.0: .
(PID.TID 0000.0001) // RANGE I (Lo:Hi:Step):(    -2:    53:     1)
(PID.TID 0000.0001) // RANGE J (Lo:Hi:Step):(   103:    -2:    -1)
(PID.TID 0000.0001) // RANGE K (Lo:Hi:Step):(   1:   1:   1)
(PID.TID 0000.0001) // =======================================================
(PID.TID 0000.0001) // =======================================================
(PID.TID 0000.0001) // END OF FIELD                                          =
(PID.TID 0000.0001) // =======================================================
(PID.TID 0000.0001) 
(PID.TID 0000.0001) // =======================================================
(PID.TID 0000.0001) // Field Model Ro_surf (ini_masks_etc)
(PID.TID 0000.0001) // CMIN =         -6.812500000000010E+02
(PID.TID 0000.0001) // CMAX =         -2.000000000000000E+02
(PID.TID 0000.0001) // CINT =          1.782407407407411E+01
(PID.TID 0000.0001) // SYMBOLS (CMIN->CMAX): -abcdefghijklmnopqrstuvwxyz+
(PID.TID 0000.0001) //                  0.0: .
(PID.TID 0000.0001) // RANGE I (Lo:Hi:Step):(    -2:    53:     1)
(PID.TID 0000.0001) // RANGE J (Lo:Hi:Step):(   103:    -2:    -1)
(PID.TID 0000.0001) // RANGE K (Lo:Hi:Step):(   1:   1:   1)
(PID.TID 0000.0001) // =======================================================
(PID.TID 0000.0001) K =   1
(PID.TID 0000.0001) //                I=7       I=17      I=27      I=37      I=47
(PID.TID 0000.0001) // |--J--|210123456|890123456|890123456|890123456|890123456|890123
(PID.TID 0000.0001) //    103 aaa.aaaaaaaaaaaaaaaaaaaaaaaaaaaaaaaaaaaaaaaaaaaaaaaaa.aa
(PID.TID 0000.0001) //    102 ---.-------------------------------------------------.--
(PID.TID 0000.0001) //    101 ........................................................
(PID.TID 0000.0001) //    100 ........................................................
(PID.TID 0000.0001) //     99 ........................................................
(PID.TID 0000.0001) //     98 ........................................................
(PID.TID 0000.0001) //     97 ........................................................
(PID.TID 0000.0001) //     96 ........................................................
(PID.TID 0000.0001) //     95 ........................................................
(PID.TID 0000.0001) //     94 ........................................................
(PID.TID 0000.0001) //     93 ........................................................
(PID.TID 0000.0001) //     92 ........................................................
(PID.TID 0000.0001) //     91 ........................................................
(PID.TID 0000.0001) //     90 ........................................................
(PID.TID 0000.0001) //     89 ........................................................
(PID.TID 0000.0001) //     88 ........................................................
(PID.TID 0000.0001) //     87 ........................................................
(PID.TID 0000.0001) //     86 ........................................................
(PID.TID 0000.0001) //     85 ........................................................
(PID.TID 0000.0001) //     84 ........................................................
(PID.TID 0000.0001) //     83 ........................................................
(PID.TID 0000.0001) //     82 ........................................................
(PID.TID 0000.0001) //     81 ........................................................
(PID.TID 0000.0001) //     80 ........................................................
(PID.TID 0000.0001) //     79 ........................................................
(PID.TID 0000.0001) //     78 ........................................................
(PID.TID 0000.0001) //     77 ........................................................
(PID.TID 0000.0001) //     76 ........................................................
(PID.TID 0000.0001) //     75 ........................................................
(PID.TID 0000.0001) //     74 ........................................................
(PID.TID 0000.0001) //     73 ........................................................
(PID.TID 0000.0001) //     72 ........................................................
(PID.TID 0000.0001) //     71 ........................................................
(PID.TID 0000.0001) //     70 ........................................................
(PID.TID 0000.0001) //     69 ........................................................
(PID.TID 0000.0001) //     68 ........................................................
(PID.TID 0000.0001) //     67 ........................................................
(PID.TID 0000.0001) //     66 ........................................................
(PID.TID 0000.0001) //     65 ........................................................
(PID.TID 0000.0001) //     64 ........................................................
(PID.TID 0000.0001) //     63 ........................................................
(PID.TID 0000.0001) //     62 ........................................................
(PID.TID 0000.0001) //     61 ........................................................
(PID.TID 0000.0001) //     60 ........................................................
(PID.TID 0000.0001) //     59 ........................................................
(PID.TID 0000.0001) //     58 ........................................................
(PID.TID 0000.0001) //     57 ........................................................
(PID.TID 0000.0001) //     56 ........................................................
(PID.TID 0000.0001) //     55 ........................................................
(PID.TID 0000.0001) //     54 ........................................................
(PID.TID 0000.0001) //     53 ........................................................
(PID.TID 0000.0001) //     52 ........................................................
(PID.TID 0000.0001) //     51 ........................................................
(PID.TID 0000.0001) //     50 +++.+++++++++++++++++++++++++++++++++++++++++++++++++.++
(PID.TID 0000.0001) //     49 +++.+++++++++++++++++++++++++++++++++++++++++++++++++.++
(PID.TID 0000.0001) //     48 +++.+++++++++++++++++++++++++++++++++++++++++++++++++.++
(PID.TID 0000.0001) //     53 ........................................................
(PID.TID 0000.0001) //     52 ........................................................
(PID.TID 0000.0001) //     51 ........................................................
(PID.TID 0000.0001) //     50 +++.+++++++++++++++++++++++++++++++++++++++++++++++++.++
(PID.TID 0000.0001) //     49 +++.+++++++++++++++++++++++++++++++++++++++++++++++++.++
(PID.TID 0000.0001) //     48 +++.+++++++++++++++++++++++++++++++++++++++++++++++++.++
(PID.TID 0000.0001) //     47 +++.+++++++++++++++++++++++++++++++++++++++++++++++++.++
(PID.TID 0000.0001) //     46 +++.+++++++++++++++++++++++++++++++++++++++++++++++++.++
(PID.TID 0000.0001) //     45 +++.+++++++++++++++++++++++++++++++++++++++++++++++++.++
(PID.TID 0000.0001) //     44 +++.+++++++++++++++++++++++++++++++++++++++++++++++++.++
(PID.TID 0000.0001) //     43 +++.+++++++++++++++++++++++++++++++++++++++++++++++++.++
(PID.TID 0000.0001) //     42 +++.+++++++++++++++++++++++++++++++++++++++++++++++++.++
(PID.TID 0000.0001) //     41 +++.+++++++++++++++++++++++++++++++++++++++++++++++++.++
(PID.TID 0000.0001) //     40 +++.+++++++++++++++++++++++++++++++++++++++++++++++++.++
(PID.TID 0000.0001) //     39 zzz.zzzzzzzzzzzzzzzzzzzzzzzzzzzzzzzzzzzzzzzzzzzzzzzzz.zz
(PID.TID 0000.0001) //     38 yyy.yyyyyyyyyyyyyyyyyyyyyyyyyyyyyyyyyyyyyyyyyyyyyyyyy.yy
(PID.TID 0000.0001) //     37 yyy.yyyyyyyyyyyyyyyyyyyyyyyyyyyyyyyyyyyyyyyyyyyyyyyyy.yy
(PID.TID 0000.0001) //     36 xxx.xxxxxxxxxxxxxxxxxxxxxxxxxxxxxxxxxxxxxxxxxxxxxxxxx.xx
(PID.TID 0000.0001) //     35 www.wwwwwwwwwwwwwwwwwwwwwwwwwwwwwwwwwwwwwwwwwwwwwwwww.ww
(PID.TID 0000.0001) //     34 vvv.vvvvvvvvvvvvvvvvvvvvvvvvvvvvvvvvvvvvvvvvvvvvvvvvv.vv
(PID.TID 0000.0001) //     33 vvv.vvvvvvvvvvvvvvvvvvvvvvvvvvvvvvvvvvvvvvvvvvvvvvvvv.vv
(PID.TID 0000.0001) //     32 uuu.uuuuuuuuuuuuuuuuuuuuuuuuuuuuuuuuuuuuuuuuuuuuuuuuu.uu
(PID.TID 0000.0001) //     31 ttt.ttttttttttttttttttttttttttttttttttttttttttttttttt.tt
(PID.TID 0000.0001) //     30 ttt.ttttttttttttttttttttttttttttttttttttttttttttttttt.tt
(PID.TID 0000.0001) //     29 sss.sssssssssssssssssssssssssssssssssssssssssssssssss.ss
(PID.TID 0000.0001) //     28 rrr.rrrrrrrrrrrrrrrrrrrrrrrrrrrrrrrrrrrrrrrrrrrrrrrrr.rr
(PID.TID 0000.0001) //     27 rrr.rrrrrrrrrrrrrrrrrrrrrrrrrrrrrrrrrrrrrrrrrrrrrrrrr.rr
(PID.TID 0000.0001) //     26 qqq.qqqqqqqqqqqqqqqqqqqqqqqqqqqqqqqqqqqqqqqqqqqqqqqqq.qq
(PID.TID 0000.0001) //     25 ppp.ppppppppppppppppppppppppppppppppppppppppppppppppp.pp
(PID.TID 0000.0001) //     24 ooo.ooooooooooooooooooooooooooooooooooooooooooooooooo.oo
(PID.TID 0000.0001) //     23 ooo.ooooooooooooooooooooooooooooooooooooooooooooooooo.oo
(PID.TID 0000.0001) //     22 nnn.nnnnnnnnnnnnnnnnnnnnnnnnnnnnnnnnnnnnnnnnnnnnnnnnn.nn
(PID.TID 0000.0001) //     21 mmm.mmmmmmmmmmmmmmmmmmmmmmmmmmmmmmmmmmmmmmmmmmmmmmmmm.mm
(PID.TID 0000.0001) //     20 mmm.mmmmmmmmmmmmmmmmmmmmmmmmmmmmmmmmmmmmmmmmmmmmmmmmm.mm
(PID.TID 0000.0001) //     19 lll.lllllllllllllllllllllllllllllllllllllllllllllllll.ll
(PID.TID 0000.0001) //     18 kkk.kkkkkkkkkkkkkkkkkkkkkkkkkkkkkkkkkkkkkkkkkkkkkkkkk.kk
(PID.TID 0000.0001) //     17 kkk.kkkkkkkkkkkkkkkkkkkkkkkkkkkkkkkkkkkkkkkkkkkkkkkkk.kk
(PID.TID 0000.0001) //     16 jjj.jjjjjjjjjjjjjjjjjjjjjjjjjjjjjjjjjjjjjjjjjjjjjjjjj.jj
(PID.TID 0000.0001) //     15 iii.iiiiiiiiiiiiiiiiiiiiiiiiiiiiiiiiiiiiiiiiiiiiiiiii.ii
(PID.TID 0000.0001) //     14 hhh.hhhhhhhhhhhhhhhhhhhhhhhhhhhhhhhhhhhhhhhhhhhhhhhhh.hh
(PID.TID 0000.0001) //     13 hhh.hhhhhhhhhhhhhhhhhhhhhhhhhhhhhhhhhhhhhhhhhhhhhhhhh.hh
(PID.TID 0000.0001) //     12 ggg.ggggggggggggggggggggggggggggggggggggggggggggggggg.gg
(PID.TID 0000.0001) //     11 fff.fffffffffffffffffffffffffffffffffffffffffffffffff.ff
(PID.TID 0000.0001) //     10 fff.fffffffffffffffffffffffffffffffffffffffffffffffff.ff
(PID.TID 0000.0001) //      9 eee.eeeeeeeeeeeeeeeeeeeeeeeeeeeeeeeeeeeeeeeeeeeeeeeee.ee
(PID.TID 0000.0001) //      8 ddd.ddddddddddddddddddddddddddddddddddddddddddddddddd.dd
(PID.TID 0000.0001) //      7 ddd.ddddddddddddddddddddddddddddddddddddddddddddddddd.dd
(PID.TID 0000.0001) //      6 ccc.ccccccccccccccccccccccccccccccccccccccccccccccccc.cc
(PID.TID 0000.0001) //      5 bbb.bbbbbbbbbbbbbbbbbbbbbbbbbbbbbbbbbbbbbbbbbbbbbbbbb.bb
(PID.TID 0000.0001) //      4 aaa.aaaaaaaaaaaaaaaaaaaaaaaaaaaaaaaaaaaaaaaaaaaaaaaaa.aa
(PID.TID 0000.0001) //      3 aaa.aaaaaaaaaaaaaaaaaaaaaaaaaaaaaaaaaaaaaaaaaaaaaaaaa.aa
(PID.TID 0000.0001) //      2 ---.-------------------------------------------------.--
(PID.TID 0000.0001) //      1 ........................................................
(PID.TID 0000.0001) //      0 ........................................................
(PID.TID 0000.0001) //     -1 ........................................................
(PID.TID 0000.0001) //     -2 ........................................................
(PID.TID 0000.0001) // =======================================================
(PID.TID 0000.0001) // END OF FIELD                                          =
(PID.TID 0000.0001) // =======================================================
(PID.TID 0000.0001) 
(PID.TID 0000.0001) // =======================================================
(PID.TID 0000.0001) // Field hFacC at iteration          0
(PID.TID 0000.0001) // CMIN =          1.000000000000000E+00
(PID.TID 0000.0001) // CMAX =          1.000000000000000E+00
(PID.TID 0000.0001) // CINT =          0.000000000000000E+00
(PID.TID 0000.0001) // SYMBOLS (CMIN->CMAX): -abcdefghijklmnopqrstuvwxyz+
(PID.TID 0000.0001) //                  0.0: .
(PID.TID 0000.0001) // RANGE I (Lo:Hi:Step):(    -2:    53:     1)
(PID.TID 0000.0001) // RANGE J (Lo:Hi:Step):(   103:    -2:    -1)
(PID.TID 0000.0001) // RANGE K (Lo:Hi:Step):(   1:   1:   1)
(PID.TID 0000.0001) // =======================================================
(PID.TID 0000.0001) // =======================================================
(PID.TID 0000.0001) // END OF FIELD                                          =
(PID.TID 0000.0001) // =======================================================
(PID.TID 0000.0001) 
(PID.TID 0000.0001) // =======================================================
(PID.TID 0000.0001) // Field hFacW at iteration          0
(PID.TID 0000.0001) // CMIN =          1.000000000000000E+00
(PID.TID 0000.0001) // CMAX =          1.000000000000000E+00
(PID.TID 0000.0001) // CINT =          0.000000000000000E+00
(PID.TID 0000.0001) // SYMBOLS (CMIN->CMAX): -abcdefghijklmnopqrstuvwxyz+
(PID.TID 0000.0001) //                  0.0: .
(PID.TID 0000.0001) // RANGE I (Lo:Hi:Step):(    -2:    53:     1)
(PID.TID 0000.0001) // RANGE J (Lo:Hi:Step):(   103:    -2:    -1)
(PID.TID 0000.0001) // RANGE K (Lo:Hi:Step):(   1:   1:   1)
(PID.TID 0000.0001) // =======================================================
(PID.TID 0000.0001) // =======================================================
(PID.TID 0000.0001) // END OF FIELD                                          =
(PID.TID 0000.0001) // =======================================================
(PID.TID 0000.0001) 
(PID.TID 0000.0001) // =======================================================
(PID.TID 0000.0001) // Field hFacS at iteration          0
(PID.TID 0000.0001) // CMIN =          1.000000000000000E+00
(PID.TID 0000.0001) // CMAX =          1.000000000000000E+00
(PID.TID 0000.0001) // CINT =          0.000000000000000E+00
(PID.TID 0000.0001) // SYMBOLS (CMIN->CMAX): -abcdefghijklmnopqrstuvwxyz+
(PID.TID 0000.0001) //                  0.0: .
(PID.TID 0000.0001) // RANGE I (Lo:Hi:Step):(    -2:    53:     1)
(PID.TID 0000.0001) // RANGE J (Lo:Hi:Step):(   103:    -2:    -1)
(PID.TID 0000.0001) // RANGE K (Lo:Hi:Step):(   1:   1:   1)
(PID.TID 0000.0001) // =======================================================
(PID.TID 0000.0001) // =======================================================
(PID.TID 0000.0001) // END OF FIELD                                          =
(PID.TID 0000.0001) // =======================================================
(PID.TID 0000.0001) 
(PID.TID 0000.0001) GAD_INIT_FIXED: GAD_OlMinSize=  1  0  1
(PID.TID 0000.0001) 
(PID.TID 0000.0001) // ===================================
(PID.TID 0000.0001) // GAD parameters :
(PID.TID 0000.0001) // ===================================
(PID.TID 0000.0001) tempAdvScheme =   /* Temp. Horiz.Advection scheme selector */
(PID.TID 0000.0001)                       2
(PID.TID 0000.0001)     ;
(PID.TID 0000.0001) tempVertAdvScheme =   /* Temp. Vert. Advection scheme selector */
(PID.TID 0000.0001)                       2
(PID.TID 0000.0001)     ;
(PID.TID 0000.0001) tempMultiDimAdvec =   /* use Muti-Dim Advec method for Temp */
(PID.TID 0000.0001)                   F
(PID.TID 0000.0001)     ;
(PID.TID 0000.0001) tempSOM_Advection = /* use 2nd Order Moment Advection for Temp */
(PID.TID 0000.0001)                   F
(PID.TID 0000.0001)     ;
(PID.TID 0000.0001) AdamsBashforthGt = /* apply Adams-Bashforth extrapolation on Gt */
(PID.TID 0000.0001)                   T
(PID.TID 0000.0001)     ;
(PID.TID 0000.0001) AdamsBashforth_T = /* apply Adams-Bashforth extrapolation on Temp */
(PID.TID 0000.0001)                   F
(PID.TID 0000.0001)     ;
(PID.TID 0000.0001) saltAdvScheme =   /* Salt. Horiz.advection scheme selector */
(PID.TID 0000.0001)                       2
(PID.TID 0000.0001)     ;
(PID.TID 0000.0001) saltVertAdvScheme =   /* Salt. Vert. Advection scheme selector */
(PID.TID 0000.0001)                       2
(PID.TID 0000.0001)     ;
(PID.TID 0000.0001) saltMultiDimAdvec =   /* use Muti-Dim Advec method for Salt */
(PID.TID 0000.0001)                   F
(PID.TID 0000.0001)     ;
(PID.TID 0000.0001) saltSOM_Advection = /* use 2nd Order Moment Advection for Salt */
(PID.TID 0000.0001)                   F
(PID.TID 0000.0001)     ;
(PID.TID 0000.0001) AdamsBashforthGs = /* apply Adams-Bashforth extrapolation on Gs */
(PID.TID 0000.0001)                   T
(PID.TID 0000.0001)     ;
(PID.TID 0000.0001) AdamsBashforth_S = /* apply Adams-Bashforth extrapolation on Salt */
(PID.TID 0000.0001)                   F
(PID.TID 0000.0001)     ;
(PID.TID 0000.0001) // ===================================
(PID.TID 0000.0001)  MDS_READ_FIELD: opening global file: phi0surf.exp1.jmd95z
(PID.TID 0000.0001)  MDS_READ_FIELD: opening global file: frontcircum.xuyun
(PID.TID 0000.0001)  MDS_READ_FIELD: opening global file: frontdepth.xuyun
(PID.TID 0000.0001) ------------------------------------------------------------
(PID.TID 0000.0001) DIAGNOSTICS_SET_LEVELS: done
(PID.TID 0000.0001)  Total Nb of available Diagnostics: ndiagt=   199
(PID.TID 0000.0001)  write list of available Diagnostics to file: available_diagnostics.log
(PID.TID 0000.0001) SETDIAG: Allocate  1 x  1 Levels for Diagnostic #   190 SHIfwFlx
(PID.TID 0000.0001) SETDIAG: Allocate  1 x  1 Levels for Diagnostic #   191 SHIhtFlx
(PID.TID 0000.0001) SETDIAG: Allocate 30 x  1 Levels for Diagnostic #   198 ICFfwFlx
(PID.TID 0000.0001) SETDIAG: Allocate 30 x  1 Levels for Diagnostic #   199 ICFhtFlx
(PID.TID 0000.0001)   space allocated for all diagnostics:      62 levels
(PID.TID 0000.0001) DIAGNOSTICS_SET_POINTERS: Set levels for Outp.Stream: shelficeDiag
(PID.TID 0000.0001)  Levels:       1.
(PID.TID 0000.0001) DIAGNOSTICS_SET_POINTERS: Set levels for Outp.Stream: icefrontDiag
(PID.TID 0000.0001)  Levels:       1.   2.   3.   4.   5.   6.   7.   8.   9.  10.  11.  12.  13.  14.  15.  16.  17.  18.  19.  20.
(PID.TID 0000.0001)  Levels:      21.  22.  23.  24.  25.  26.  27.  28.  29.  30.
(PID.TID 0000.0001) DIAGNOSTICS_SET_POINTERS: done
(PID.TID 0000.0001) ------------------------------------------------------------
(PID.TID 0000.0001) DIAGSTATS_SET_REGIONS: define no region
(PID.TID 0000.0001) ------------------------------------------------------------
(PID.TID 0000.0001)   space allocated for all stats-diags:       0 levels
(PID.TID 0000.0001) DIAGSTATS_SET_POINTERS: done
(PID.TID 0000.0001) ------------------------------------------------------------
(PID.TID 0000.0001) %MON fCori_max                    =  -1.3709057042516E-04
(PID.TID 0000.0001) %MON fCori_min                    =  -1.4360464034757E-04
(PID.TID 0000.0001) %MON fCori_mean                   =  -1.4069429304699E-04
(PID.TID 0000.0001) %MON fCori_sd                     =   1.9069739624987E-06
(PID.TID 0000.0001) %MON fCoriG_max                   =  -1.3713394327439E-04
(PID.TID 0000.0001) %MON fCoriG_min                   =  -1.4362679550910E-04
(PID.TID 0000.0001) %MON fCoriG_mean                  =  -1.4072713798624E-04
(PID.TID 0000.0001) %MON fCoriG_sd                    =   1.9008093726821E-06
(PID.TID 0000.0001) %MON fCoriCos_max                 =   4.9761447480159E-05
(PID.TID 0000.0001) %MON fCoriCos_min                 =   2.5450607565678E-05
(PID.TID 0000.0001) %MON fCoriCos_mean                =   3.7698922201606E-05
(PID.TID 0000.0001) %MON fCoriCos_sd                  =   7.0920218535054E-06
(PID.TID 0000.0001) INI_CG2D: CG2D normalisation factor =  8.6553958581495505E-04
(PID.TID 0000.0001) 
(PID.TID 0000.0001) // =======================================================
(PID.TID 0000.0001) // Model configuration
(PID.TID 0000.0001) // =======================================================
(PID.TID 0000.0001) //
(PID.TID 0000.0001) // "Physical" paramters ( PARM01 in namelist )
(PID.TID 0000.0001) //
(PID.TID 0000.0001) buoyancyRelation = /* Type of relation to get Buoyancy */
(PID.TID 0000.0001)               'OCEANIC'
(PID.TID 0000.0001)     ;
(PID.TID 0000.0001) fluidIsAir   =  /* fluid major constituent is Air */
(PID.TID 0000.0001)                   F
(PID.TID 0000.0001)     ;
(PID.TID 0000.0001) fluidIsWater =  /* fluid major constituent is Water */
(PID.TID 0000.0001)                   T
(PID.TID 0000.0001)     ;
(PID.TID 0000.0001) usingPCoords =  /* use p (or p*) vertical coordinate */
(PID.TID 0000.0001)                   F
(PID.TID 0000.0001)     ;
(PID.TID 0000.0001) usingZCoords =  /* use z (or z*) vertical coordinate */
(PID.TID 0000.0001)                   T
(PID.TID 0000.0001)     ;
(PID.TID 0000.0001) tRef =   /* Reference temperature profile ( oC or K ) */
(PID.TID 0000.0001)    30 @ -1.900000000000000E+00              /* K =  1: 30 */
(PID.TID 0000.0001)     ;
(PID.TID 0000.0001) sRef =   /* Reference salinity profile ( psu ) */
(PID.TID 0000.0001)    30 @  3.440000000000000E+01              /* K =  1: 30 */
(PID.TID 0000.0001)     ;
(PID.TID 0000.0001) viscAh  =   /* Lateral eddy viscosity ( m^2/s ) */
(PID.TID 0000.0001)                 6.000000000000000E+02
(PID.TID 0000.0001)     ;
(PID.TID 0000.0001) viscAhMax = /* Maximum lateral eddy viscosity ( m^2/s ) */
(PID.TID 0000.0001)                 1.000000000000000E+21
(PID.TID 0000.0001)     ;
(PID.TID 0000.0001) viscAhGrid = /* Grid dependent lateral eddy viscosity ( non-dim. ) */
(PID.TID 0000.0001)                 0.000000000000000E+00
(PID.TID 0000.0001)     ;
(PID.TID 0000.0001) useFullLeith = /* Use Full Form of Leith Viscosity on/off flag*/
(PID.TID 0000.0001)                   F
(PID.TID 0000.0001)     ;
(PID.TID 0000.0001) useStrainTensionVisc= /* Use StrainTension Form of Viscous Operator flag*/
(PID.TID 0000.0001)                   F
(PID.TID 0000.0001)     ;
(PID.TID 0000.0001) useAreaViscLength = /* Use area for visc length instead of geom. mean*/
(PID.TID 0000.0001)                   F
(PID.TID 0000.0001)     ;
(PID.TID 0000.0001) viscC2leith = /* Leith harmonic visc. factor (on grad(vort),non-dim.) */
(PID.TID 0000.0001)                 0.000000000000000E+00
(PID.TID 0000.0001)     ;
(PID.TID 0000.0001) viscC2leithD = /* Leith harmonic viscosity factor (on grad(div),non-dim.)*/
(PID.TID 0000.0001)                 0.000000000000000E+00
(PID.TID 0000.0001)     ;
(PID.TID 0000.0001) viscC2smag = /* Smagorinsky harmonic viscosity factor (non-dim.) */
(PID.TID 0000.0001)                 0.000000000000000E+00
(PID.TID 0000.0001)     ;
(PID.TID 0000.0001) viscA4  =   /* Lateral biharmonic viscosity ( m^4/s ) */
(PID.TID 0000.0001)                 0.000000000000000E+00
(PID.TID 0000.0001)     ;
(PID.TID 0000.0001) viscA4Max = /* Maximum biharmonic viscosity ( m^2/s ) */
(PID.TID 0000.0001)                 1.000000000000000E+21
(PID.TID 0000.0001)     ;
(PID.TID 0000.0001) viscA4Grid = /* Grid dependent biharmonic viscosity ( non-dim. ) */
(PID.TID 0000.0001)                 0.000000000000000E+00
(PID.TID 0000.0001)     ;
(PID.TID 0000.0001) viscC4leith = /* Leith biharm viscosity factor (on grad(vort), non-dim.)*/
(PID.TID 0000.0001)                 0.000000000000000E+00
(PID.TID 0000.0001)     ;
(PID.TID 0000.0001) viscC4leithD = /* Leith biharm viscosity factor (on grad(div), non-dim.) */
(PID.TID 0000.0001)                 0.000000000000000E+00
(PID.TID 0000.0001)     ;
(PID.TID 0000.0001) viscC4Smag = /* Smagorinsky biharm viscosity factor (non-dim) */
(PID.TID 0000.0001)                 0.000000000000000E+00
(PID.TID 0000.0001)     ;
(PID.TID 0000.0001) no_slip_sides =  /* Viscous BCs: No-slip sides */
(PID.TID 0000.0001)                   F
(PID.TID 0000.0001)     ;
(PID.TID 0000.0001) sideDragFactor = /* side-drag scaling factor (non-dim) */
(PID.TID 0000.0001)                 2.000000000000000E+00
(PID.TID 0000.0001)     ;
(PID.TID 0000.0001) viscArNr = /* vertical profile of vertical viscosity ( m^2/s )*/
(PID.TID 0000.0001)    30 @  1.000000000000000E-03              /* K =  1: 30 */
(PID.TID 0000.0001)     ;
(PID.TID 0000.0001) no_slip_bottom =  /* Viscous BCs: No-slip bottom */
(PID.TID 0000.0001)                   F
(PID.TID 0000.0001)     ;
(PID.TID 0000.0001) bottomDragLinear = /* linear bottom-drag coefficient ( m/s ) */
(PID.TID 0000.0001)                 0.000000000000000E+00
(PID.TID 0000.0001)     ;
(PID.TID 0000.0001) bottomDragQuadratic = /* quadratic bottom-drag coefficient (-) */
(PID.TID 0000.0001)                 2.500000000000000E-03
(PID.TID 0000.0001)     ;
(PID.TID 0000.0001) diffKhT =   /* Laplacian diffusion of heat laterally ( m^2/s ) */
(PID.TID 0000.0001)                 1.000000000000000E+02
(PID.TID 0000.0001)     ;
(PID.TID 0000.0001) diffK4T =   /* Biharmonic diffusion of heat laterally ( m^4/s ) */
(PID.TID 0000.0001)                 0.000000000000000E+00
(PID.TID 0000.0001)     ;
(PID.TID 0000.0001) diffKhS =   /* Laplacian diffusion of salt laterally ( m^2/s ) */
(PID.TID 0000.0001)                 1.000000000000000E+02
(PID.TID 0000.0001)     ;
(PID.TID 0000.0001) diffK4S =   /* Biharmonic diffusion of salt laterally ( m^4/s ) */
(PID.TID 0000.0001)                 0.000000000000000E+00
(PID.TID 0000.0001)     ;
(PID.TID 0000.0001) diffKrNrT = /* vertical profile of vertical diffusion of Temp ( m^2/s )*/
(PID.TID 0000.0001)    30 @  5.000000000000000E-05              /* K =  1: 30 */
(PID.TID 0000.0001)     ;
(PID.TID 0000.0001) diffKrNrS = /* vertical profile of vertical diffusion of Salt ( m^2/s )*/
(PID.TID 0000.0001)    30 @  5.000000000000000E-05              /* K =  1: 30 */
(PID.TID 0000.0001)     ;
(PID.TID 0000.0001) diffKrBL79surf = /* Surface diffusion for Bryan and Lewis 79 ( m^2/s ) */
(PID.TID 0000.0001)                 0.000000000000000E+00
(PID.TID 0000.0001)     ;
(PID.TID 0000.0001) diffKrBL79deep = /* Deep diffusion for Bryan and Lewis 1979 ( m^2/s ) */
(PID.TID 0000.0001)                 0.000000000000000E+00
(PID.TID 0000.0001)     ;
(PID.TID 0000.0001) diffKrBL79scl = /* Depth scale for Bryan and Lewis 1979 ( m ) */
(PID.TID 0000.0001)                 2.000000000000000E+02
(PID.TID 0000.0001)     ;
(PID.TID 0000.0001) diffKrBL79Ho = /* Turning depth for Bryan and Lewis 1979 ( m ) */
(PID.TID 0000.0001)                -2.000000000000000E+03
(PID.TID 0000.0001)     ;
(PID.TID 0000.0001) ivdc_kappa = /* Implicit Vertical Diffusivity for Convection ( m^2/s) */
(PID.TID 0000.0001)                 0.000000000000000E+00
(PID.TID 0000.0001)     ;
(PID.TID 0000.0001) hMixCriteria=  /* Criteria for mixed-layer diagnostic */
(PID.TID 0000.0001)                -8.000000000000000E-01
(PID.TID 0000.0001)     ;
(PID.TID 0000.0001) dRhoSmall =  /* Parameter for mixed-layer diagnostic */
(PID.TID 0000.0001)                 1.000000000000000E-06
(PID.TID 0000.0001)     ;
(PID.TID 0000.0001) hMixSmooth=  /* Smoothing parameter for mixed-layer diagnostic */
(PID.TID 0000.0001)                 0.000000000000000E+00
(PID.TID 0000.0001)     ;
(PID.TID 0000.0001) eosType =  /* Type of Equation of State */
(PID.TID 0000.0001)               'JMD95Z'
(PID.TID 0000.0001)     ;
(PID.TID 0000.0001) celsius2K = /* 0 degree Celsius converted to Kelvin ( K ) */
(PID.TID 0000.0001)                 2.731500000000000E+02
(PID.TID 0000.0001)     ;
(PID.TID 0000.0001) rhoConst  = /* Reference density (Boussinesq)  ( kg/m^3 ) */
(PID.TID 0000.0001)                 1.030000000000000E+03
(PID.TID 0000.0001)     ;
(PID.TID 0000.0001) rhoFacC = /* normalized Reference density @ cell-Center (-) */
(PID.TID 0000.0001)    30 @  1.000000000000000E+00              /* K =  1: 30 */
(PID.TID 0000.0001)     ;
(PID.TID 0000.0001) rhoFacF = /* normalized Reference density @ W-Interface (-) */
(PID.TID 0000.0001)    31 @  1.000000000000000E+00              /* K =  1: 31 */
(PID.TID 0000.0001)     ;
(PID.TID 0000.0001) rhoConstFresh = /* Fresh-water reference density ( kg/m^3 ) */
(PID.TID 0000.0001)                 1.030000000000000E+03
(PID.TID 0000.0001)     ;
(PID.TID 0000.0001) gravity =   /* Gravitational acceleration ( m/s^2 ) */
(PID.TID 0000.0001)                 9.810000000000000E+00
(PID.TID 0000.0001)     ;
(PID.TID 0000.0001) gBaro =   /* Barotropic gravity ( m/s^2 ) */
(PID.TID 0000.0001)                 9.810000000000000E+00
(PID.TID 0000.0001)     ;
(PID.TID 0000.0001) rotationPeriod =   /* Rotation Period ( s ) */
(PID.TID 0000.0001)                 8.616400000000000E+04
(PID.TID 0000.0001)     ;
(PID.TID 0000.0001) omega =   /* Angular velocity ( rad/s ) */
(PID.TID 0000.0001)                 7.292123516990375E-05
(PID.TID 0000.0001)     ;
(PID.TID 0000.0001) f0 =   /* Reference coriolis parameter ( 1/s ) */
(PID.TID 0000.0001)                 1.000000000000000E-04
(PID.TID 0000.0001)     ;
(PID.TID 0000.0001) beta =   /* Beta ( 1/(m.s) ) */
(PID.TID 0000.0001)                 9.999999999999999E-12
(PID.TID 0000.0001)     ;
(PID.TID 0000.0001) fPrime =   /* Second coriolis parameter ( 1/s ) */
(PID.TID 0000.0001)                 0.000000000000000E+00
(PID.TID 0000.0001)     ;
(PID.TID 0000.0001) rigidLid =   /* Rigid lid on/off flag */
(PID.TID 0000.0001)                   F
(PID.TID 0000.0001)     ;
(PID.TID 0000.0001) implicitFreeSurface =   /* Implicit free surface on/off flag */
(PID.TID 0000.0001)                   T
(PID.TID 0000.0001)     ;
(PID.TID 0000.0001) freeSurfFac =   /* Implicit free surface factor */
(PID.TID 0000.0001)                 1.000000000000000E+00
(PID.TID 0000.0001)     ;
(PID.TID 0000.0001) implicSurfPress =  /* Surface Pressure implicit factor (0-1)*/
(PID.TID 0000.0001)                 1.000000000000000E+00
(PID.TID 0000.0001)     ;
(PID.TID 0000.0001) implicDiv2Dflow =  /* Barot. Flow Div. implicit factor (0-1)*/
(PID.TID 0000.0001)                 1.000000000000000E+00
(PID.TID 0000.0001)     ;
(PID.TID 0000.0001) uniformLin_PhiSurf = /* use uniform Bo_surf on/off flag*/
(PID.TID 0000.0001)                   T
(PID.TID 0000.0001)     ;
(PID.TID 0000.0001) uniformFreeSurfLev = /* free-surface level-index is uniform */
(PID.TID 0000.0001)                   F
(PID.TID 0000.0001)     ;
(PID.TID 0000.0001) hFacMin =   /* minimum partial cell factor (hFac) */
(PID.TID 0000.0001)                 5.000000000000000E-02
(PID.TID 0000.0001)     ;
(PID.TID 0000.0001) hFacMinDr = /* minimum partial cell thickness ( m) */
(PID.TID 0000.0001)                 5.000000000000000E-02
(PID.TID 0000.0001)     ;
(PID.TID 0000.0001) exactConserv =  /* Exact Volume Conservation on/off flag*/
(PID.TID 0000.0001)                   T
(PID.TID 0000.0001)     ;
(PID.TID 0000.0001) linFSConserveTr = /* Tracer correction for Lin Free Surface on/off flag*/
(PID.TID 0000.0001)                   F
(PID.TID 0000.0001)     ;
(PID.TID 0000.0001) nonlinFreeSurf = /* Non-linear Free Surf. options (-1,0,1,2,3)*/
(PID.TID 0000.0001)                       0
(PID.TID 0000.0001)      -1,0= Off ; 1,2,3= On, 2=+rescale gU,gV, 3=+update cg2d solv.
(PID.TID 0000.0001)     ;
(PID.TID 0000.0001) hFacInf =   /* lower threshold for hFac (nonlinFreeSurf only)*/
(PID.TID 0000.0001)                 2.000000000000000E-01
(PID.TID 0000.0001)     ;
(PID.TID 0000.0001) hFacSup =   /* upper threshold for hFac (nonlinFreeSurf only)*/
(PID.TID 0000.0001)                 2.000000000000000E+00
(PID.TID 0000.0001)     ;
(PID.TID 0000.0001) select_rStar = /* r* Vertical coord. options (=0 r coord.; >0 uses r*)*/
(PID.TID 0000.0001)                       0
(PID.TID 0000.0001)     ;
(PID.TID 0000.0001) useRealFreshWaterFlux = /* Real Fresh Water Flux on/off flag*/
(PID.TID 0000.0001)                   F
(PID.TID 0000.0001)     ;
(PID.TID 0000.0001) temp_EvPrRn = /* Temp. of Evap/Prec/R (UNSET=use local T)(oC)*/
(PID.TID 0000.0001)                 1.234567000000000E+05
(PID.TID 0000.0001)     ;
(PID.TID 0000.0001) salt_EvPrRn = /* Salin. of Evap/Prec/R (UNSET=use local S)(psu)*/
(PID.TID 0000.0001)                 0.000000000000000E+00
(PID.TID 0000.0001)     ;
(PID.TID 0000.0001) selectAddFluid = /* option for mass source/sink of fluid (=0: off) */
(PID.TID 0000.0001)                       0
(PID.TID 0000.0001)     ;
(PID.TID 0000.0001) temp_addMass = /* Temp. of addMass array (UNSET=use local T)(oC)*/
(PID.TID 0000.0001)                 1.234567000000000E+05
(PID.TID 0000.0001)     ;
(PID.TID 0000.0001) salt_addMass = /* Salin. of addMass array (UNSET=use local S)(psu)*/
(PID.TID 0000.0001)                 0.000000000000000E+00
(PID.TID 0000.0001)     ;
(PID.TID 0000.0001) convertFW2Salt = /* convert F.W. Flux to Salt Flux (-1=use local S)(psu)*/
(PID.TID 0000.0001)                 3.340000000000000E+01
(PID.TID 0000.0001)     ;
(PID.TID 0000.0001) use3Dsolver = /* use 3-D pressure solver on/off flag */
(PID.TID 0000.0001)                   F
(PID.TID 0000.0001)     ;
(PID.TID 0000.0001) nonHydrostatic =  /* Non-Hydrostatic on/off flag */
(PID.TID 0000.0001)                   F
(PID.TID 0000.0001)     ;
(PID.TID 0000.0001) nh_Am2 = /* Non-Hydrostatic terms scaling factor */
(PID.TID 0000.0001)                 1.000000000000000E+00
(PID.TID 0000.0001)     ;
(PID.TID 0000.0001) implicitNHPress = /* Non-Hyd Pressure implicit factor (0-1)*/
(PID.TID 0000.0001)                 1.000000000000000E+00
(PID.TID 0000.0001)     ;
(PID.TID 0000.0001) selectNHfreeSurf = /* Non-Hyd (free-)Surface option */
(PID.TID 0000.0001)                       0
(PID.TID 0000.0001)     ;
(PID.TID 0000.0001) quasiHydrostatic = /* Quasi-Hydrostatic on/off flag */
(PID.TID 0000.0001)                   F
(PID.TID 0000.0001)     ;
(PID.TID 0000.0001) calc_wVelocity = /* vertical velocity calculation on/off flag */
(PID.TID 0000.0001)                   T
(PID.TID 0000.0001)     ;
(PID.TID 0000.0001) momStepping =  /* Momentum equation on/off flag */
(PID.TID 0000.0001)                   T
(PID.TID 0000.0001)     ;
(PID.TID 0000.0001) vectorInvariantMomentum= /* Vector-Invariant Momentum on/off */
(PID.TID 0000.0001)                   F
(PID.TID 0000.0001)     ;
(PID.TID 0000.0001) momAdvection =  /* Momentum advection on/off flag */
(PID.TID 0000.0001)                   T
(PID.TID 0000.0001)     ;
(PID.TID 0000.0001) momViscosity =  /* Momentum viscosity on/off flag */
(PID.TID 0000.0001)                   T
(PID.TID 0000.0001)     ;
(PID.TID 0000.0001) momImplVertAdv= /* Momentum implicit vert. advection on/off*/
(PID.TID 0000.0001)                   F
(PID.TID 0000.0001)     ;
(PID.TID 0000.0001) implicitViscosity = /* Implicit viscosity on/off flag */
(PID.TID 0000.0001)                   F
(PID.TID 0000.0001)     ;
(PID.TID 0000.0001) metricTerms =  /* metric-Terms on/off flag */
(PID.TID 0000.0001)                   T
(PID.TID 0000.0001)     ;
(PID.TID 0000.0001) useNHMTerms = /* Non-Hydrostatic Metric-Terms on/off */
(PID.TID 0000.0001)                   F
(PID.TID 0000.0001)     ;
(PID.TID 0000.0001) selectCoriMap = /* Coriolis Map options (0,1,2,3)*/
(PID.TID 0000.0001)                       2
(PID.TID 0000.0001)     0= f-Plane ; 1= Beta-Plane ; 2= Spherical ; 3= read from file
(PID.TID 0000.0001)     ;
(PID.TID 0000.0001) use3dCoriolis = /* 3-D Coriolis on/off flag */
(PID.TID 0000.0001)                   F
(PID.TID 0000.0001)     ;
(PID.TID 0000.0001) useCoriolis =  /* Coriolis on/off flag */
(PID.TID 0000.0001)                   T
(PID.TID 0000.0001)     ;
(PID.TID 0000.0001) useCDscheme =  /* CD scheme on/off flag */
(PID.TID 0000.0001)                   T
(PID.TID 0000.0001)     ;
(PID.TID 0000.0001) useEnergyConservingCoriolis= /* Flx-Form Coriolis scheme flag */
(PID.TID 0000.0001)                   F
(PID.TID 0000.0001)     ;
(PID.TID 0000.0001) useJamartWetPoints= /* Coriolis WetPoints method flag */
(PID.TID 0000.0001)                   F
(PID.TID 0000.0001)     ;
(PID.TID 0000.0001) useJamartMomAdv= /* V.I Non-linear terms Jamart flag */
(PID.TID 0000.0001)                   F
(PID.TID 0000.0001)     ;
(PID.TID 0000.0001) useAbsVorticity= /* V.I Works with f+zeta in Coriolis */
(PID.TID 0000.0001)                   F
(PID.TID 0000.0001)     ;
(PID.TID 0000.0001) selectVortScheme= /* V.I Scheme selector for Vorticity-Term */
(PID.TID 0000.0001)               123456789
(PID.TID 0000.0001)    = 0 : enstrophy (Shallow-Water Eq.) conserving scheme by Sadourny, JAS 75
(PID.TID 0000.0001)    = 1 : same as 0 with modified hFac
(PID.TID 0000.0001)    = 2 : energy conserving scheme (used by Sadourny in JAS 75 paper)
(PID.TID 0000.0001)    = 3 : energy (general) and enstrophy (2D, nonDiv.) conserving scheme
(PID.TID 0000.0001)          from Sadourny (Burridge & Haseler, ECMWF Rep.4, 1977)
(PID.TID 0000.0001)     ;
(PID.TID 0000.0001) upwindVorticity= /* V.I Upwind bias vorticity flag */
(PID.TID 0000.0001)                   F
(PID.TID 0000.0001)     ;
(PID.TID 0000.0001) highOrderVorticity= /* V.I High order vort. advect. flag */
(PID.TID 0000.0001)                   F
(PID.TID 0000.0001)     ;
(PID.TID 0000.0001) upwindShear= /* V.I Upwind vertical Shear advection flag */
(PID.TID 0000.0001)                   F
(PID.TID 0000.0001)     ;
(PID.TID 0000.0001) selectKEscheme= /* V.I Kinetic Energy scheme selector */
(PID.TID 0000.0001)                       0
(PID.TID 0000.0001)     ;
(PID.TID 0000.0001) momForcing =  /* Momentum forcing on/off flag */
(PID.TID 0000.0001)                   T
(PID.TID 0000.0001)     ;
(PID.TID 0000.0001) momPressureForcing =  /* Momentum pressure term on/off flag */
(PID.TID 0000.0001)                   T
(PID.TID 0000.0001)     ;
(PID.TID 0000.0001) implicitIntGravWave= /* Implicit Internal Gravity Wave flag */
(PID.TID 0000.0001)                   F
(PID.TID 0000.0001)     ;
(PID.TID 0000.0001) staggerTimeStep =    /* Stagger time stepping on/off flag */
(PID.TID 0000.0001)                   F
(PID.TID 0000.0001)     ;
(PID.TID 0000.0001) doResetHFactors = /* reset thickness factors @ each time-step */
(PID.TID 0000.0001)                   F
(PID.TID 0000.0001)     ;
(PID.TID 0000.0001) multiDimAdvection =  /* enable/disable Multi-Dim Advection */
(PID.TID 0000.0001)                   T
(PID.TID 0000.0001)     ;
(PID.TID 0000.0001) useMultiDimAdvec =   /* Multi-Dim Advection is/is-not used */
(PID.TID 0000.0001)                   F
(PID.TID 0000.0001)     ;
(PID.TID 0000.0001) implicitDiffusion = /* Implicit Diffusion on/off flag */
(PID.TID 0000.0001)                   F
(PID.TID 0000.0001)     ;
(PID.TID 0000.0001) tempStepping =  /* Temperature equation on/off flag */
(PID.TID 0000.0001)                   T
(PID.TID 0000.0001)     ;
(PID.TID 0000.0001) tempAdvection = /* Temperature advection on/off flag */
(PID.TID 0000.0001)                   T
(PID.TID 0000.0001)     ;
(PID.TID 0000.0001) tempImplVertAdv = /* Temp. implicit vert. advection on/off */
(PID.TID 0000.0001)                   F
(PID.TID 0000.0001)     ;
(PID.TID 0000.0001) tempForcing  =  /* Temperature forcing on/off flag */
(PID.TID 0000.0001)                   T
(PID.TID 0000.0001)     ;
(PID.TID 0000.0001) doThetaClimRelax = /* apply SST relaxation on/off flag */
(PID.TID 0000.0001)                   F
(PID.TID 0000.0001)     ;
(PID.TID 0000.0001) tempIsActiveTr = /* Temp. is a dynamically Active Tracer */
(PID.TID 0000.0001)                   T
(PID.TID 0000.0001)     ;
(PID.TID 0000.0001) saltStepping =  /* Salinity equation on/off flag */
(PID.TID 0000.0001)                   T
(PID.TID 0000.0001)     ;
(PID.TID 0000.0001) saltAdvection = /* Salinity advection on/off flag */
(PID.TID 0000.0001)                   T
(PID.TID 0000.0001)     ;
(PID.TID 0000.0001) saltImplVertAdv = /* Sali. implicit vert. advection on/off */
(PID.TID 0000.0001)                   F
(PID.TID 0000.0001)     ;
(PID.TID 0000.0001) saltForcing  =  /* Salinity forcing on/off flag */
(PID.TID 0000.0001)                   T
(PID.TID 0000.0001)     ;
(PID.TID 0000.0001) doSaltClimRelax = /* apply SSS relaxation on/off flag */
(PID.TID 0000.0001)                   F
(PID.TID 0000.0001)     ;
(PID.TID 0000.0001) saltIsActiveTr = /* Salt  is a dynamically Active Tracer */
(PID.TID 0000.0001)                   T
(PID.TID 0000.0001)     ;
(PID.TID 0000.0001)  readBinaryPrec = /* Precision used for reading binary files */
(PID.TID 0000.0001)                      64
(PID.TID 0000.0001)     ;
(PID.TID 0000.0001) writeBinaryPrec = /* Precision used for writing binary files */
(PID.TID 0000.0001)                      32
(PID.TID 0000.0001)     ;
(PID.TID 0000.0001)  globalFiles = /* write "global" (=not per tile) files */
(PID.TID 0000.0001)                   F
(PID.TID 0000.0001)     ;
(PID.TID 0000.0001)  useSingleCpuIO = /* only master MPI process does I/O */
(PID.TID 0000.0001)                   F
(PID.TID 0000.0001)     ;
(PID.TID 0000.0001) /* debLev[*]  : level of debug & auxiliary message printing */
(PID.TID 0000.0001) debLevZero =  0 ; /* level of disabled aux. msg printing */
(PID.TID 0000.0001)    debLevA =  1 ; /* level of minimum  aux. msg printing */
(PID.TID 0000.0001)    debLevB =  2 ; /* level of low aux. print (report read-file opening)*/
(PID.TID 0000.0001)    debLevC =  3 ; /* level of moderate debug prt (most pkgs debug msg) */
(PID.TID 0000.0001)    debLevD =  4 ; /* level of enhanced debug prt (add DEBUG_STATS prt) */
(PID.TID 0000.0001)    debLevE =  5 ; /* level of extensive debug printing */
(PID.TID 0000.0001) debugLevel =  /* select debug printing level */
(PID.TID 0000.0001)                       2
(PID.TID 0000.0001)     ;
(PID.TID 0000.0001) //
(PID.TID 0000.0001) // Elliptic solver(s) paramters ( PARM02 in namelist )
(PID.TID 0000.0001) //
(PID.TID 0000.0001) cg2dMaxIters =   /* Upper limit on 2d con. grad iterations  */
(PID.TID 0000.0001)                    1000
(PID.TID 0000.0001)     ;
(PID.TID 0000.0001) cg2dChkResFreq =   /* 2d con. grad convergence test frequency */
(PID.TID 0000.0001)                       1
(PID.TID 0000.0001)     ;
(PID.TID 0000.0001) cg2dUseMinResSol= /* use cg2d last-iter(=0) / min-resid.(=1) solution */
(PID.TID 0000.0001)                       0
(PID.TID 0000.0001)     ;
(PID.TID 0000.0001) cg2dTargetResidual =   /* 2d con. grad target residual  */
(PID.TID 0000.0001)                 1.000000000000000E-13
(PID.TID 0000.0001)     ;
(PID.TID 0000.0001) cg2dTargetResWunit =   /* CG2d target residual [W units] */
(PID.TID 0000.0001)                -1.000000000000000E+00
(PID.TID 0000.0001)     ;
(PID.TID 0000.0001) cg2dPreCondFreq =   /* Freq. for updating cg2d preconditioner */
(PID.TID 0000.0001)                       1
(PID.TID 0000.0001)     ;
(PID.TID 0000.0001) useSRCGSolver =  /* use single reduction CG solver(s) */
(PID.TID 0000.0001)                   F
(PID.TID 0000.0001)     ;
(PID.TID 0000.0001) printResidualFreq = /* Freq. for printing CG residual */
(PID.TID 0000.0001)                       0
(PID.TID 0000.0001)     ;
(PID.TID 0000.0001) //
(PID.TID 0000.0001) // Time stepping paramters ( PARM03 in namelist )
(PID.TID 0000.0001) //
(PID.TID 0000.0001) deltaTMom =   /* Momentum equation timestep ( s ) */
(PID.TID 0000.0001)                 1.800000000000000E+03
(PID.TID 0000.0001)     ;
(PID.TID 0000.0001) deltaTFreeSurf = /* FreeSurface equation timestep ( s ) */
(PID.TID 0000.0001)                 1.800000000000000E+03
(PID.TID 0000.0001)     ;
(PID.TID 0000.0001) dTtracerLev =  /* Tracer equation timestep ( s ) */
(PID.TID 0000.0001)    30 @  1.800000000000000E+03              /* K =  1: 30 */
(PID.TID 0000.0001)     ;
(PID.TID 0000.0001) deltaTClock  =   /* Model clock timestep ( s ) */
(PID.TID 0000.0001)                 1.800000000000000E+03
(PID.TID 0000.0001)     ;
(PID.TID 0000.0001) cAdjFreq =   /* Convective adjustment interval ( s ) */
(PID.TID 0000.0001)                 1.800000000000000E+03
(PID.TID 0000.0001)     ;
(PID.TID 0000.0001) momForcingOutAB = /* =1: take Momentum Forcing out of Adams-Bash. stepping */
(PID.TID 0000.0001)                       0
(PID.TID 0000.0001)     ;
(PID.TID 0000.0001) tracForcingOutAB = /* =1: take T,S,pTr Forcing out of Adams-Bash. stepping */
(PID.TID 0000.0001)                       0
(PID.TID 0000.0001)     ;
(PID.TID 0000.0001) momDissip_In_AB = /* put Dissipation Tendency in Adams-Bash. stepping */
(PID.TID 0000.0001)                   T
(PID.TID 0000.0001)     ;
(PID.TID 0000.0001) doAB_onGtGs = /* apply AB on Tendencies (rather than on T,S)*/
(PID.TID 0000.0001)                   T
(PID.TID 0000.0001)     ;
(PID.TID 0000.0001) abEps =   /* Adams-Bashforth-2 stabilizing weight */
(PID.TID 0000.0001)                 1.000000000000000E-01
(PID.TID 0000.0001)     ;
(PID.TID 0000.0001) tauCD =   /* CD coupling time-scale ( s ) */
(PID.TID 0000.0001)                 4.000000000000000E+05
(PID.TID 0000.0001)     ;
(PID.TID 0000.0001) rCD =   /* Normalised CD coupling parameter */
(PID.TID 0000.0001)                 9.955000000000001E-01
(PID.TID 0000.0001)     ;
(PID.TID 0000.0001) epsAB_CD = /* AB-2 stabilizing weight for CD-scheme*/
(PID.TID 0000.0001)                 1.000000000000000E-01
(PID.TID 0000.0001)     ;
(PID.TID 0000.0001) pickupStrictlyMatch= /* stop if pickup do not strictly match */
(PID.TID 0000.0001)                   T
(PID.TID 0000.0001)     ;
(PID.TID 0000.0001) nIter0   =   /* Run starting timestep number */
(PID.TID 0000.0001)                       0
(PID.TID 0000.0001)     ;
(PID.TID 0000.0001) nTimeSteps = /* Number of timesteps */
(PID.TID 0000.0001)                      20
(PID.TID 0000.0001)     ;
(PID.TID 0000.0001) nEndIter =   /* Run ending timestep number */
(PID.TID 0000.0001)                      20
(PID.TID 0000.0001)     ;
(PID.TID 0000.0001) baseTime =   /* Model base time ( s ) */
(PID.TID 0000.0001)                 0.000000000000000E+00
(PID.TID 0000.0001)     ;
(PID.TID 0000.0001) startTime =  /* Run start time ( s ) */
(PID.TID 0000.0001)                 0.000000000000000E+00
(PID.TID 0000.0001)     ;
(PID.TID 0000.0001) endTime  =   /* Integration ending time ( s ) */
(PID.TID 0000.0001)                 3.600000000000000E+04
(PID.TID 0000.0001)     ;
(PID.TID 0000.0001) pChkPtFreq = /* Permanent restart/pickup file interval ( s ) */
(PID.TID 0000.0001)                 0.000000000000000E+00
(PID.TID 0000.0001)     ;
(PID.TID 0000.0001) chkPtFreq  = /* Rolling restart/pickup file interval ( s ) */
(PID.TID 0000.0001)                 0.000000000000000E+00
(PID.TID 0000.0001)     ;
(PID.TID 0000.0001) pickup_write_mdsio =   /* Model IO flag. */
(PID.TID 0000.0001)                   T
(PID.TID 0000.0001)     ;
(PID.TID 0000.0001) pickup_read_mdsio =   /* Model IO flag. */
(PID.TID 0000.0001)                   T
(PID.TID 0000.0001)     ;
(PID.TID 0000.0001) pickup_write_mnc =   /* Model IO flag. */
(PID.TID 0000.0001)                   F
(PID.TID 0000.0001)     ;
(PID.TID 0000.0001) pickup_read_mnc =   /* Model IO flag. */
(PID.TID 0000.0001)                   F
(PID.TID 0000.0001)     ;
(PID.TID 0000.0001) pickup_write_immed =   /* Model IO flag. */
(PID.TID 0000.0001)                   F
(PID.TID 0000.0001)     ;
(PID.TID 0000.0001) writePickupAtEnd =   /* Model IO flag. */
(PID.TID 0000.0001)                   T
(PID.TID 0000.0001)     ;
(PID.TID 0000.0001) dumpFreq =   /* Model state write out interval ( s ). */
(PID.TID 0000.0001)                 0.000000000000000E+00
(PID.TID 0000.0001)     ;
(PID.TID 0000.0001) dumpInitAndLast= /* write out Initial & Last iter. model state */
(PID.TID 0000.0001)                   T
(PID.TID 0000.0001)     ;
(PID.TID 0000.0001) snapshot_mdsio =   /* Model IO flag. */
(PID.TID 0000.0001)                   T
(PID.TID 0000.0001)     ;
(PID.TID 0000.0001) snapshot_mnc =   /* Model IO flag. */
(PID.TID 0000.0001)                   F
(PID.TID 0000.0001)     ;
(PID.TID 0000.0001) monitorFreq =   /* Monitor output interval ( s ). */
(PID.TID 0000.0001)                 1.000000000000000E+00
(PID.TID 0000.0001)     ;
(PID.TID 0000.0001) monitorSelect = /* select group of variables to monitor */
(PID.TID 0000.0001)                       2
(PID.TID 0000.0001)     ;
(PID.TID 0000.0001) monitor_stdio =   /* Model IO flag. */
(PID.TID 0000.0001)                   T
(PID.TID 0000.0001)     ;
(PID.TID 0000.0001) monitor_mnc =   /* Model IO flag. */
(PID.TID 0000.0001)                   F
(PID.TID 0000.0001)     ;
(PID.TID 0000.0001) externForcingPeriod =   /* forcing period (s) */
(PID.TID 0000.0001)                 0.000000000000000E+00
(PID.TID 0000.0001)     ;
(PID.TID 0000.0001) externForcingCycle =   /* period of the cyle (s). */
(PID.TID 0000.0001)                 0.000000000000000E+00
(PID.TID 0000.0001)     ;
(PID.TID 0000.0001) tauThetaClimRelax =   /* relaxation time scale (s) */
(PID.TID 0000.0001)                 0.000000000000000E+00
(PID.TID 0000.0001)     ;
(PID.TID 0000.0001) tauSaltClimRelax =   /* relaxation time scale (s) */
(PID.TID 0000.0001)                 0.000000000000000E+00
(PID.TID 0000.0001)     ;
(PID.TID 0000.0001) latBandClimRelax =   /* max. Lat. where relaxation */
(PID.TID 0000.0001)                 1.800000000000000E+02
(PID.TID 0000.0001)     ;
(PID.TID 0000.0001) //
(PID.TID 0000.0001) // Gridding paramters ( PARM04 in namelist )
(PID.TID 0000.0001) //
(PID.TID 0000.0001) usingCartesianGrid = /* Cartesian coordinates flag ( True/False ) */
(PID.TID 0000.0001)                   F
(PID.TID 0000.0001)     ;
(PID.TID 0000.0001) usingCylindricalGrid = /* Cylindrical coordinates flag ( True/False ) */
(PID.TID 0000.0001)                   F
(PID.TID 0000.0001)     ;
(PID.TID 0000.0001) usingSphericalPolarGrid = /* Spherical coordinates flag ( True/False ) */
(PID.TID 0000.0001)                   T
(PID.TID 0000.0001)     ;
(PID.TID 0000.0001) usingCurvilinearGrid = /* Curvilinear coordinates flag ( True/False ) */
(PID.TID 0000.0001)                   F
(PID.TID 0000.0001)     ;
(PID.TID 0000.0001) selectSigmaCoord = /* Hybrid-Sigma Vert. Coordinate option */
(PID.TID 0000.0001)                       0
(PID.TID 0000.0001)     ;
(PID.TID 0000.0001) Ro_SeaLevel = /* r(1) ( units of r ==  m ) */
(PID.TID 0000.0001)                 0.000000000000000E+00
(PID.TID 0000.0001)     ;
(PID.TID 0000.0001) rSigmaBnd = /* r/sigma transition ( units of r ==  m ) */
(PID.TID 0000.0001)                 1.234567000000000E+05
(PID.TID 0000.0001)     ;
(PID.TID 0000.0001) rkSign =   /* index orientation relative to vertical coordinate */
(PID.TID 0000.0001)                -1.000000000000000E+00
(PID.TID 0000.0001)     ;
(PID.TID 0000.0001) gravitySign = /* gravity orientation relative to vertical coordinate */
(PID.TID 0000.0001)                -1.000000000000000E+00
(PID.TID 0000.0001)     ;
(PID.TID 0000.0001) mass2rUnit = /* convert mass per unit area [kg/m2] to r-units [m] */
(PID.TID 0000.0001)                 9.708737864077669E-04
(PID.TID 0000.0001)     ;
(PID.TID 0000.0001) rUnit2mass = /* convert r-units [m] to mass per unit area [kg/m2] */
(PID.TID 0000.0001)                 1.030000000000000E+03
(PID.TID 0000.0001)     ;
(PID.TID 0000.0001) drC =   /* C spacing ( units of r ) */
(PID.TID 0000.0001)                 1.500000000000000E+01,      /* K =  1 */
(PID.TID 0000.0001)    29 @  3.000000000000000E+01              /* K =  2: 30 */
(PID.TID 0000.0001)     ;
(PID.TID 0000.0001) drF =   /* W spacing ( units of r ) */
(PID.TID 0000.0001)    30 @  3.000000000000000E+01              /* K =  1: 30 */
(PID.TID 0000.0001)     ;
(PID.TID 0000.0001) delX = /* U spacing ( m - cartesian, degrees - spherical ) */
(PID.TID 0000.0001)    50 @  3.000000000000000E-01              /* I =  1: 50 */
(PID.TID 0000.0001)     ;
(PID.TID 0000.0001) delY = /* V spacing ( m - cartesian, degrees - spherical ) */
(PID.TID 0000.0001)   100 @  1.000000000000000E-01              /* J =  1:100 */
(PID.TID 0000.0001)     ;
(PID.TID 0000.0001) xgOrigin = /* X-axis origin of West  edge (cartesian: m, lat-lon: deg) */
(PID.TID 0000.0001)                 0.000000000000000E+00
(PID.TID 0000.0001)     ;
(PID.TID 0000.0001) ygOrigin = /* Y-axis origin of South edge (cartesian: m, lat-lon: deg) */
(PID.TID 0000.0001)                -8.000000000000000E+01
(PID.TID 0000.0001)     ;
(PID.TID 0000.0001) rSphere =  /* Radius ( ignored - cartesian, m - spherical ) */
(PID.TID 0000.0001)                 6.370000000000000E+06
(PID.TID 0000.0001)     ;
(PID.TID 0000.0001) deepAtmosphere = /* Deep/Shallow Atmosphere flag (True/False) */
(PID.TID 0000.0001)                   F
(PID.TID 0000.0001)     ;
(PID.TID 0000.0001) xC =  /* xC(:,1,:,1) : P-point X coord ( deg. or m if cartesian) */
(PID.TID 0000.0001)                 1.500000000000001E-01,      /* I =  1 */
(PID.TID 0000.0001)                 4.500000000000001E-01,      /* I =  2 */
(PID.TID 0000.0001)                 7.500000000000002E-01,      /* I =  3 */
(PID.TID 0000.0001)                 1.050000000000000E+00,      /* I =  4 */
(PID.TID 0000.0001)                 1.350000000000000E+00,      /* I =  5 */
(PID.TID 0000.0001)                 1.650000000000000E+00,      /* I =  6 */
(PID.TID 0000.0001)                 1.950000000000000E+00,      /* I =  7 */
(PID.TID 0000.0001)                 2.250000000000000E+00,      /* I =  8 */
(PID.TID 0000.0001)                 2.550000000000000E+00,      /* I =  9 */
(PID.TID 0000.0001)                 2.850000000000000E+00,      /* I = 10 */
(PID.TID 0000.0001)                 3.149999999999999E+00,      /* I = 11 */
(PID.TID 0000.0001)                 3.449999999999999E+00,      /* I = 12 */
(PID.TID 0000.0001)                 3.749999999999999E+00,      /* I = 13 */
(PID.TID 0000.0001)                 4.049999999999999E+00,      /* I = 14 */
(PID.TID 0000.0001)                 4.350000000000000E+00,      /* I = 15 */
(PID.TID 0000.0001)                 4.649999999999999E+00,      /* I = 16 */
(PID.TID 0000.0001)                 4.949999999999999E+00,      /* I = 17 */
(PID.TID 0000.0001)                 5.249999999999998E+00,      /* I = 18 */
(PID.TID 0000.0001)                 5.549999999999999E+00,      /* I = 19 */
(PID.TID 0000.0001)                 5.849999999999998E+00,      /* I = 20 */
(PID.TID 0000.0001)                 6.149999999999999E+00,      /* I = 21 */
(PID.TID 0000.0001)                 6.449999999999998E+00,      /* I = 22 */
(PID.TID 0000.0001)                 6.749999999999998E+00,      /* I = 23 */
(PID.TID 0000.0001)                 7.049999999999997E+00,      /* I = 24 */
(PID.TID 0000.0001)                 7.349999999999997E+00,      /* I = 25 */
(PID.TID 0000.0001)                 7.649999999999997E+00,      /* I = 26 */
(PID.TID 0000.0001)                 7.949999999999998E+00,      /* I = 27 */
(PID.TID 0000.0001)                 8.249999999999998E+00,      /* I = 28 */
(PID.TID 0000.0001)                 8.549999999999999E+00,      /* I = 29 */
(PID.TID 0000.0001)                 8.850000000000000E+00,      /* I = 30 */
(PID.TID 0000.0001)                 9.150000000000000E+00,      /* I = 31 */
(PID.TID 0000.0001)                 9.450000000000001E+00,      /* I = 32 */
(PID.TID 0000.0001)                 9.750000000000002E+00,      /* I = 33 */
(PID.TID 0000.0001)                 1.005000000000000E+01,      /* I = 34 */
(PID.TID 0000.0001)                 1.035000000000000E+01,      /* I = 35 */
(PID.TID 0000.0001)                 1.065000000000000E+01,      /* I = 36 */
(PID.TID 0000.0001)                 1.095000000000001E+01,      /* I = 37 */
(PID.TID 0000.0001)                 1.125000000000001E+01,      /* I = 38 */
(PID.TID 0000.0001)                 1.155000000000000E+01,      /* I = 39 */
(PID.TID 0000.0001)                 1.185000000000001E+01,      /* I = 40 */
(PID.TID 0000.0001)                 1.215000000000001E+01,      /* I = 41 */
(PID.TID 0000.0001)                 1.245000000000001E+01,      /* I = 42 */
(PID.TID 0000.0001)                 1.275000000000001E+01,      /* I = 43 */
(PID.TID 0000.0001)                 1.305000000000001E+01,      /* I = 44 */
(PID.TID 0000.0001)                 1.335000000000001E+01,      /* I = 45 */
(PID.TID 0000.0001)                 1.365000000000001E+01,      /* I = 46 */
(PID.TID 0000.0001)                 1.395000000000001E+01,      /* I = 47 */
(PID.TID 0000.0001)                 1.425000000000001E+01,      /* I = 48 */
(PID.TID 0000.0001)                 1.455000000000001E+01,      /* I = 49 */
(PID.TID 0000.0001)                 1.485000000000001E+01       /* I = 50 */
(PID.TID 0000.0001)     ;
(PID.TID 0000.0001) yC =  /* yC(1,:,1,:) : P-point Y coord ( deg. or m if cartesian) */
(PID.TID 0000.0001)                -7.995000000000000E+01,      /* J =  1 */
(PID.TID 0000.0001)                -7.985000000000001E+01,      /* J =  2 */
(PID.TID 0000.0001)                -7.975000000000001E+01,      /* J =  3 */
(PID.TID 0000.0001)      . . .
(PID.TID 0000.0001)                -7.775000000000013E+01,      /* J = 23 */
(PID.TID 0000.0001)                -7.765000000000013E+01,      /* J = 24 */
(PID.TID 0000.0001)                -7.755000000000014E+01,      /* J = 25 */
(PID.TID 0000.0001)                -7.745000000000014E+01,      /* J = 26 */
(PID.TID 0000.0001)                -7.735000000000015E+01,      /* J = 27 */
(PID.TID 0000.0001)                -7.725000000000016E+01,      /* J = 28 */
(PID.TID 0000.0001)      . . .
(PID.TID 0000.0001)                -7.525000000000027E+01,      /* J = 48 */
(PID.TID 0000.0001)                -7.515000000000028E+01,      /* J = 49 */
(PID.TID 0000.0001)                -7.505000000000028E+01,      /* J = 50 */
(PID.TID 0000.0001)                -7.495000000000029E+01,      /* J = 51 */
(PID.TID 0000.0001)                -7.485000000000029E+01,      /* J = 52 */
(PID.TID 0000.0001)                -7.475000000000030E+01,      /* J = 53 */
(PID.TID 0000.0001)      . . .
(PID.TID 0000.0001)                -7.275000000000041E+01,      /* J = 73 */
(PID.TID 0000.0001)                -7.265000000000042E+01,      /* J = 74 */
(PID.TID 0000.0001)                -7.255000000000042E+01,      /* J = 75 */
(PID.TID 0000.0001)                -7.245000000000043E+01,      /* J = 76 */
(PID.TID 0000.0001)                -7.235000000000043E+01,      /* J = 77 */
(PID.TID 0000.0001)                -7.225000000000044E+01,      /* J = 78 */
(PID.TID 0000.0001)      . . .
(PID.TID 0000.0001)                -7.025000000000055E+01,      /* J = 98 */
(PID.TID 0000.0001)                -7.015000000000056E+01,      /* J = 99 */
(PID.TID 0000.0001)                -7.005000000000057E+01       /* J =100 */
(PID.TID 0000.0001)     ;
(PID.TID 0000.0001) rcoord = /* P-point R coordinate (  units of r ) */
(PID.TID 0000.0001)                -1.500000000000000E+01,      /* K =  1 */
(PID.TID 0000.0001)                -4.500000000000000E+01,      /* K =  2 */
(PID.TID 0000.0001)                -7.500000000000000E+01,      /* K =  3 */
(PID.TID 0000.0001)                -1.050000000000000E+02,      /* K =  4 */
(PID.TID 0000.0001)                -1.350000000000000E+02,      /* K =  5 */
(PID.TID 0000.0001)                -1.650000000000000E+02,      /* K =  6 */
(PID.TID 0000.0001)                -1.950000000000000E+02,      /* K =  7 */
(PID.TID 0000.0001)                -2.250000000000000E+02,      /* K =  8 */
(PID.TID 0000.0001)                -2.550000000000000E+02,      /* K =  9 */
(PID.TID 0000.0001)                -2.850000000000000E+02,      /* K = 10 */
(PID.TID 0000.0001)                -3.150000000000000E+02,      /* K = 11 */
(PID.TID 0000.0001)                -3.450000000000000E+02,      /* K = 12 */
(PID.TID 0000.0001)                -3.750000000000000E+02,      /* K = 13 */
(PID.TID 0000.0001)                -4.050000000000000E+02,      /* K = 14 */
(PID.TID 0000.0001)                -4.350000000000000E+02,      /* K = 15 */
(PID.TID 0000.0001)                -4.650000000000000E+02,      /* K = 16 */
(PID.TID 0000.0001)                -4.950000000000000E+02,      /* K = 17 */
(PID.TID 0000.0001)                -5.250000000000000E+02,      /* K = 18 */
(PID.TID 0000.0001)                -5.550000000000000E+02,      /* K = 19 */
(PID.TID 0000.0001)                -5.850000000000000E+02,      /* K = 20 */
(PID.TID 0000.0001)                -6.150000000000000E+02,      /* K = 21 */
(PID.TID 0000.0001)                -6.450000000000000E+02,      /* K = 22 */
(PID.TID 0000.0001)                -6.750000000000000E+02,      /* K = 23 */
(PID.TID 0000.0001)                -7.050000000000000E+02,      /* K = 24 */
(PID.TID 0000.0001)                -7.350000000000000E+02,      /* K = 25 */
(PID.TID 0000.0001)                -7.650000000000000E+02,      /* K = 26 */
(PID.TID 0000.0001)                -7.950000000000000E+02,      /* K = 27 */
(PID.TID 0000.0001)                -8.250000000000000E+02,      /* K = 28 */
(PID.TID 0000.0001)                -8.550000000000000E+02,      /* K = 29 */
(PID.TID 0000.0001)                -8.850000000000000E+02       /* K = 30 */
(PID.TID 0000.0001)     ;
(PID.TID 0000.0001) rF =   /* W-Interf. R coordinate (  units of r ) */
(PID.TID 0000.0001)                 0.000000000000000E+00,      /* K =  1 */
(PID.TID 0000.0001)                -3.000000000000000E+01,      /* K =  2 */
(PID.TID 0000.0001)                -6.000000000000000E+01,      /* K =  3 */
(PID.TID 0000.0001)                -9.000000000000000E+01,      /* K =  4 */
(PID.TID 0000.0001)                -1.200000000000000E+02,      /* K =  5 */
(PID.TID 0000.0001)                -1.500000000000000E+02,      /* K =  6 */
(PID.TID 0000.0001)                -1.800000000000000E+02,      /* K =  7 */
(PID.TID 0000.0001)                -2.100000000000000E+02,      /* K =  8 */
(PID.TID 0000.0001)                -2.400000000000000E+02,      /* K =  9 */
(PID.TID 0000.0001)                -2.700000000000000E+02,      /* K = 10 */
(PID.TID 0000.0001)                -3.000000000000000E+02,      /* K = 11 */
(PID.TID 0000.0001)                -3.300000000000000E+02,      /* K = 12 */
(PID.TID 0000.0001)                -3.600000000000000E+02,      /* K = 13 */
(PID.TID 0000.0001)                -3.900000000000000E+02,      /* K = 14 */
(PID.TID 0000.0001)                -4.200000000000000E+02,      /* K = 15 */
(PID.TID 0000.0001)                -4.500000000000000E+02,      /* K = 16 */
(PID.TID 0000.0001)                -4.800000000000000E+02,      /* K = 17 */
(PID.TID 0000.0001)                -5.100000000000000E+02,      /* K = 18 */
(PID.TID 0000.0001)                -5.400000000000000E+02,      /* K = 19 */
(PID.TID 0000.0001)                -5.700000000000000E+02,      /* K = 20 */
(PID.TID 0000.0001)                -6.000000000000000E+02,      /* K = 21 */
(PID.TID 0000.0001)                -6.300000000000000E+02,      /* K = 22 */
(PID.TID 0000.0001)                -6.600000000000000E+02,      /* K = 23 */
(PID.TID 0000.0001)                -6.900000000000000E+02,      /* K = 24 */
(PID.TID 0000.0001)                -7.200000000000000E+02,      /* K = 25 */
(PID.TID 0000.0001)                -7.500000000000000E+02,      /* K = 26 */
(PID.TID 0000.0001)                -7.800000000000000E+02,      /* K = 27 */
(PID.TID 0000.0001)                -8.100000000000000E+02,      /* K = 28 */
(PID.TID 0000.0001)                -8.400000000000000E+02,      /* K = 29 */
(PID.TID 0000.0001)                -8.700000000000000E+02,      /* K = 30 */
(PID.TID 0000.0001)                -9.000000000000000E+02       /* K = 31 */
(PID.TID 0000.0001)     ;
(PID.TID 0000.0001) deepFacC = /* deep-model grid factor @ cell-Center (-) */
(PID.TID 0000.0001)    30 @  1.000000000000000E+00              /* K =  1: 30 */
(PID.TID 0000.0001)     ;
(PID.TID 0000.0001) deepFacF = /* deep-model grid factor @ W-Interface (-) */
(PID.TID 0000.0001)    31 @  1.000000000000000E+00              /* K =  1: 31 */
(PID.TID 0000.0001)     ;
(PID.TID 0000.0001) rVel2wUnit = /* convert units: rVel -> wSpeed (=1 if z-coord)*/
(PID.TID 0000.0001)    31 @  1.000000000000000E+00              /* K =  1: 31 */
(PID.TID 0000.0001)     ;
(PID.TID 0000.0001) wUnit2rVel = /* convert units: wSpeed -> rVel (=1 if z-coord)*/
(PID.TID 0000.0001)    31 @  1.000000000000000E+00              /* K =  1: 31 */
(PID.TID 0000.0001)     ;
(PID.TID 0000.0001) dBdrRef = /* Vertical grad. of reference buoyancy [(m/s/r)^2] */
(PID.TID 0000.0001)    30 @  0.000000000000000E+00              /* K =  1: 30 */
(PID.TID 0000.0001)     ;
(PID.TID 0000.0001) rotateGrid = /* use rotated grid ( True/False ) */
(PID.TID 0000.0001)                   F
(PID.TID 0000.0001)     ;
(PID.TID 0000.0001) phiEuler = /* Euler angle, rotation about original z-coordinate [rad] */
(PID.TID 0000.0001)                 0.000000000000000E+00
(PID.TID 0000.0001)     ;
(PID.TID 0000.0001) thetaEuler = /* Euler angle, rotation about new x-coordinate [rad] */
(PID.TID 0000.0001)                 0.000000000000000E+00
(PID.TID 0000.0001)     ;
(PID.TID 0000.0001) psiEuler = /* Euler angle, rotation about new z-coordinate [rad] */
(PID.TID 0000.0001)                 0.000000000000000E+00
(PID.TID 0000.0001)     ;
(PID.TID 0000.0001) dxF =  /* dxF(:,1,:,1) ( units: m ) */
(PID.TID 0000.0001)    50 @  5.820391490558872E+03              /* I =  1: 50 */
(PID.TID 0000.0001)     ;
(PID.TID 0000.0001) dxF =  /* dxF(1,:,1,:) ( units: m ) */
(PID.TID 0000.0001)                 5.820391490558872E+03,      /* J =  1 */
(PID.TID 0000.0001)                 5.877701765291692E+03,      /* J =  2 */
(PID.TID 0000.0001)                 5.934994135525598E+03,      /* J =  3 */
(PID.TID 0000.0001)      . . .
(PID.TID 0000.0001)                 7.076813247621209E+03,      /* J = 23 */
(PID.TID 0000.0001)                 7.133689397375063E+03,      /* J = 24 */
(PID.TID 0000.0001)                 7.190543816673855E+03,      /* J = 25 */
(PID.TID 0000.0001)                 7.247376332329164E+03,      /* J = 26 */
(PID.TID 0000.0001)                 7.304186771219292E+03,      /* J = 27 */
(PID.TID 0000.0001)                 7.360974960289787E+03,      /* J = 28 */
(PID.TID 0000.0001)      . . .
(PID.TID 0000.0001)                 8.491800393599013E+03,      /* J = 48 */
(PID.TID 0000.0001)                 8.548081485571185E+03,      /* J = 49 */
(PID.TID 0000.0001)                 8.604336538604706E+03,      /* J = 50 */
(PID.TID 0000.0001)                 8.660565381336924E+03,      /* J = 51 */
(PID.TID 0000.0001)                 8.716767842485036E+03,      /* J = 52 */
(PID.TID 0000.0001)                 8.772943750846600E+03,      /* J = 53 */
(PID.TID 0000.0001)      . . .
(PID.TID 0000.0001)                 9.890622914885218E+03,      /* J = 73 */
(PID.TID 0000.0001)                 9.946201814818334E+03,      /* J = 74 */
(PID.TID 0000.0001)                 1.000175041689580E+04,      /* J = 75 */
(PID.TID 0000.0001)                 1.005726855190695E+04,      /* J = 76 */
(PID.TID 0000.0001)                 1.011275605073392E+04,      /* J = 77 */
(PID.TID 0000.0001)                 1.016821274435215E+04,      /* J = 78 */
(PID.TID 0000.0001)      . . .
(PID.TID 0000.0001)                 1.127061807330668E+04,      /* J = 98 */
(PID.TID 0000.0001)                 1.132538898360582E+04,      /* J = 99 */
(PID.TID 0000.0001)                 1.138012539480601E+04       /* J =100 */
(PID.TID 0000.0001)     ;
(PID.TID 0000.0001) dyF =  /* dyF(:,1,:,1) ( units: m ) */
(PID.TID 0000.0001)    50 @  1.111774733520388E+04              /* I =  1: 50 */
(PID.TID 0000.0001)     ;
(PID.TID 0000.0001) dyF =  /* dyF(1,:,1,:) ( units: m ) */
(PID.TID 0000.0001)   100 @  1.111774733520388E+04              /* J =  1:100 */
(PID.TID 0000.0001)     ;
(PID.TID 0000.0001) dxG =  /* dxG(:,1,:,1) ( units: m ) */
(PID.TID 0000.0001)    50 @  5.791729693558576E+03              /* I =  1: 50 */
(PID.TID 0000.0001)     ;
(PID.TID 0000.0001) dxG =  /* dxG(1,:,1,:) ( units: m ) */
(PID.TID 0000.0001)                 5.791729693558576E+03,      /* J =  1 */
(PID.TID 0000.0001)                 5.849048855077854E+03,      /* J =  2 */
(PID.TID 0000.0001)                 5.906350199379949E+03,      /* J =  3 */
(PID.TID 0000.0001)      . . .
(PID.TID 0000.0001)                 7.048367077963129E+03,      /* J = 23 */
(PID.TID 0000.0001)                 7.105254027978149E+03,      /* J = 24 */
(PID.TID 0000.0001)                 7.162119334157175E+03,      /* J = 25 */
(PID.TID 0000.0001)                 7.218962823278620E+03,      /* J = 26 */
(PID.TID 0000.0001)                 7.275784322187360E+03,      /* J = 27 */
(PID.TID 0000.0001)                 7.332583657795253E+03,      /* J = 28 */
(PID.TID 0000.0001)      . . .
(PID.TID 0000.0001)                 8.463650136583461E+03,      /* J = 48 */
(PID.TID 0000.0001)                 8.519944183739159E+03,      /* J = 49 */
(PID.TID 0000.0001)                 8.576212277667308E+03,      /* J = 50 */
(PID.TID 0000.0001)                 8.632454246965530E+03,      /* J = 51 */
(PID.TID 0000.0001)                 8.688669920311038E+03,      /* J = 52 */
(PID.TID 0000.0001)                 8.744859126461139E+03,      /* J = 53 */
(PID.TID 0000.0001)      . . .
(PID.TID 0000.0001)                 9.862822156126382E+03,      /* J = 73 */
(PID.TID 0000.0001)                 9.918416141504455E+03,      /* J = 74 */
(PID.TID 0000.0001)                 9.973979913666863E+03,      /* J = 75 */
(PID.TID 0000.0001)                 1.002951330335672E+04,      /* J = 76 */
(PID.TID 0000.0001)                 1.008501614140969E+04,      /* J = 77 */
(PID.TID 0000.0001)                 1.014048825875450E+04,      /* J = 78 */
(PID.TID 0000.0001)      . . .
(PID.TID 0000.0001)                 1.124321973312895E+04,      /* J = 98 */
(PID.TID 0000.0001)                 1.129800783041847E+04,      /* J = 99 */
(PID.TID 0000.0001)                 1.135276151201679E+04       /* J =100 */
(PID.TID 0000.0001)     ;
(PID.TID 0000.0001) dyG =  /* dyG(:,1,:,1) ( units: m ) */
(PID.TID 0000.0001)    50 @  1.111774733520388E+04              /* I =  1: 50 */
(PID.TID 0000.0001)     ;
(PID.TID 0000.0001) dyG =  /* dyG(1,:,1,:) ( units: m ) */
(PID.TID 0000.0001)   100 @  1.111774733520388E+04              /* J =  1:100 */
(PID.TID 0000.0001)     ;
(PID.TID 0000.0001) dxC =  /* dxC(:,1,:,1) ( units: m ) */
(PID.TID 0000.0001)    50 @  5.820391490558872E+03              /* I =  1: 50 */
(PID.TID 0000.0001)     ;
(PID.TID 0000.0001) dxC =  /* dxC(1,:,1,:) ( units: m ) */
(PID.TID 0000.0001)                 5.820391490558872E+03,      /* J =  1 */
(PID.TID 0000.0001)                 5.877701765291692E+03,      /* J =  2 */
(PID.TID 0000.0001)                 5.934994135525598E+03,      /* J =  3 */
(PID.TID 0000.0001)      . . .
(PID.TID 0000.0001)                 7.076813247621209E+03,      /* J = 23 */
(PID.TID 0000.0001)                 7.133689397375063E+03,      /* J = 24 */
(PID.TID 0000.0001)                 7.190543816673855E+03,      /* J = 25 */
(PID.TID 0000.0001)                 7.247376332329164E+03,      /* J = 26 */
(PID.TID 0000.0001)                 7.304186771219292E+03,      /* J = 27 */
(PID.TID 0000.0001)                 7.360974960289787E+03,      /* J = 28 */
(PID.TID 0000.0001)      . . .
(PID.TID 0000.0001)                 8.491800393599013E+03,      /* J = 48 */
(PID.TID 0000.0001)                 8.548081485571185E+03,      /* J = 49 */
(PID.TID 0000.0001)                 8.604336538604706E+03,      /* J = 50 */
(PID.TID 0000.0001)                 8.660565381336924E+03,      /* J = 51 */
(PID.TID 0000.0001)                 8.716767842485036E+03,      /* J = 52 */
(PID.TID 0000.0001)                 8.772943750846600E+03,      /* J = 53 */
(PID.TID 0000.0001)      . . .
(PID.TID 0000.0001)                 9.890622914885218E+03,      /* J = 73 */
(PID.TID 0000.0001)                 9.946201814818334E+03,      /* J = 74 */
(PID.TID 0000.0001)                 1.000175041689580E+04,      /* J = 75 */
(PID.TID 0000.0001)                 1.005726855190695E+04,      /* J = 76 */
(PID.TID 0000.0001)                 1.011275605073392E+04,      /* J = 77 */
(PID.TID 0000.0001)                 1.016821274435215E+04,      /* J = 78 */
(PID.TID 0000.0001)      . . .
(PID.TID 0000.0001)                 1.127061807330668E+04,      /* J = 98 */
(PID.TID 0000.0001)                 1.132538898360582E+04,      /* J = 99 */
(PID.TID 0000.0001)                 1.138012539480601E+04       /* J =100 */
(PID.TID 0000.0001)     ;
(PID.TID 0000.0001) dyC =  /* dyC(:,1,:,1) ( units: m ) */
(PID.TID 0000.0001)    50 @  1.111774733520388E+04              /* I =  1: 50 */
(PID.TID 0000.0001)     ;
(PID.TID 0000.0001) dyC =  /* dyC(1,:,1,:) ( units: m ) */
(PID.TID 0000.0001)   100 @  1.111774733520388E+04              /* J =  1:100 */
(PID.TID 0000.0001)     ;
(PID.TID 0000.0001) dxV =  /* dxV(:,1,:,1) ( units: m ) */
(PID.TID 0000.0001)    50 @  5.791729693558576E+03              /* I =  1: 50 */
(PID.TID 0000.0001)     ;
(PID.TID 0000.0001) dxV =  /* dxV(1,:,1,:) ( units: m ) */
(PID.TID 0000.0001)                 5.791729693558576E+03,      /* J =  1 */
(PID.TID 0000.0001)                 5.849048855077854E+03,      /* J =  2 */
(PID.TID 0000.0001)                 5.906350199379949E+03,      /* J =  3 */
(PID.TID 0000.0001)      . . .
(PID.TID 0000.0001)                 7.048367077963129E+03,      /* J = 23 */
(PID.TID 0000.0001)                 7.105254027978149E+03,      /* J = 24 */
(PID.TID 0000.0001)                 7.162119334157175E+03,      /* J = 25 */
(PID.TID 0000.0001)                 7.218962823278620E+03,      /* J = 26 */
(PID.TID 0000.0001)                 7.275784322187360E+03,      /* J = 27 */
(PID.TID 0000.0001)                 7.332583657795253E+03,      /* J = 28 */
(PID.TID 0000.0001)      . . .
(PID.TID 0000.0001)                 8.463650136583461E+03,      /* J = 48 */
(PID.TID 0000.0001)                 8.519944183739159E+03,      /* J = 49 */
(PID.TID 0000.0001)                 8.576212277667308E+03,      /* J = 50 */
(PID.TID 0000.0001)                 8.632454246965530E+03,      /* J = 51 */
(PID.TID 0000.0001)                 8.688669920311038E+03,      /* J = 52 */
(PID.TID 0000.0001)                 8.744859126461139E+03,      /* J = 53 */
(PID.TID 0000.0001)      . . .
(PID.TID 0000.0001)                 9.862822156126382E+03,      /* J = 73 */
(PID.TID 0000.0001)                 9.918416141504455E+03,      /* J = 74 */
(PID.TID 0000.0001)                 9.973979913666863E+03,      /* J = 75 */
(PID.TID 0000.0001)                 1.002951330335672E+04,      /* J = 76 */
(PID.TID 0000.0001)                 1.008501614140969E+04,      /* J = 77 */
(PID.TID 0000.0001)                 1.014048825875450E+04,      /* J = 78 */
(PID.TID 0000.0001)      . . .
(PID.TID 0000.0001)                 1.124321973312895E+04,      /* J = 98 */
(PID.TID 0000.0001)                 1.129800783041847E+04,      /* J = 99 */
(PID.TID 0000.0001)                 1.135276151201679E+04       /* J =100 */
(PID.TID 0000.0001)     ;
(PID.TID 0000.0001) dyU =  /* dyU(:,1,:,1) ( units: m ) */
(PID.TID 0000.0001)    50 @  1.111774733520388E+04              /* I =  1: 50 */
(PID.TID 0000.0001)     ;
(PID.TID 0000.0001) dyU =  /* dyU(1,:,1,:) ( units: m ) */
(PID.TID 0000.0001)   100 @  1.111774733520388E+04              /* J =  1:100 */
(PID.TID 0000.0001)     ;
(PID.TID 0000.0001) rA  =  /* rA (:,1,:,1) ( units: m^2 ) */
(PID.TID 0000.0001)    50 @  6.470963377080289E+07              /* I =  1: 50 */
(PID.TID 0000.0001)     ;
(PID.TID 0000.0001) rA  =  /* rA (1,:,1,:) ( units: m^2 ) */
(PID.TID 0000.0001)                 6.470963377080289E+07,      /* J =  1 */
(PID.TID 0000.0001)                 6.534679484410104E+07,      /* J =  2 */
(PID.TID 0000.0001)                 6.598375685977945E+07,      /* J =  3 */
(PID.TID 0000.0001)      . . .
(PID.TID 0000.0001)                 7.867821163932665E+07,      /* J = 23 */
(PID.TID 0000.0001)                 7.931054622142966E+07,      /* J = 24 */
(PID.TID 0000.0001)                 7.994263920984067E+07,      /* J = 25 */
(PID.TID 0000.0001)                 8.057448867913349E+07,      /* J = 26 */
(PID.TID 0000.0001)                 8.120609270456599E+07,      /* J = 27 */
(PID.TID 0000.0001)                 8.183744936212724E+07,      /* J = 28 */
(PID.TID 0000.0001)      . . .
(PID.TID 0000.0001)                 9.440967921416211E+07,      /* J = 48 */
(PID.TID 0000.0001)                 9.503539809503193E+07,      /* J = 49 */
(PID.TID 0000.0001)                 9.566082748163140E+07,      /* J = 50 */
(PID.TID 0000.0001)                 9.628596546870193E+07,      /* J = 51 */
(PID.TID 0000.0001)                 9.691081015209354E+07,      /* J = 52 */
(PID.TID 0000.0001)                 9.753535962826957E+07,      /* J = 53 */
(PID.TID 0000.0001)      . . .
(PID.TID 0000.0001)                 1.099614325987181E+08,      /* J = 73 */
(PID.TID 0000.0001)                 1.105793446869293E+08,      /* J = 74 */
(PID.TID 0000.0001)                 1.111969199312560E+08,      /* J = 75 */
(PID.TID 0000.0001)                 1.118141564504991E+08,      /* J = 76 */
(PID.TID 0000.0001)                 1.124310523644033E+08,      /* J = 77 */
(PID.TID 0000.0001)                 1.130476057938687E+08,      /* J = 78 */
(PID.TID 0000.0001)      . . .
(PID.TID 0000.0001)                 1.253038681465364E+08,      /* J = 98 */
(PID.TID 0000.0001)                 1.259127972112936E+08,      /* J = 99 */
(PID.TID 0000.0001)                 1.265213427237870E+08       /* J =100 */
(PID.TID 0000.0001)     ;
(PID.TID 0000.0001) rAw =  /* rAw(:,1,:,1) ( units: m^2 ) */
(PID.TID 0000.0001)    50 @  6.470963377080289E+07              /* I =  1: 50 */
(PID.TID 0000.0001)     ;
(PID.TID 0000.0001) rAw =  /* rAw(1,:,1,:) ( units: m^2 ) */
(PID.TID 0000.0001)                 6.470963377080289E+07,      /* J =  1 */
(PID.TID 0000.0001)                 6.534679484410104E+07,      /* J =  2 */
(PID.TID 0000.0001)                 6.598375685977945E+07,      /* J =  3 */
(PID.TID 0000.0001)      . . .
(PID.TID 0000.0001)                 7.867821163932665E+07,      /* J = 23 */
(PID.TID 0000.0001)                 7.931054622142966E+07,      /* J = 24 */
(PID.TID 0000.0001)                 7.994263920984067E+07,      /* J = 25 */
(PID.TID 0000.0001)                 8.057448867913349E+07,      /* J = 26 */
(PID.TID 0000.0001)                 8.120609270456599E+07,      /* J = 27 */
(PID.TID 0000.0001)                 8.183744936212724E+07,      /* J = 28 */
(PID.TID 0000.0001)      . . .
(PID.TID 0000.0001)                 9.440967921416211E+07,      /* J = 48 */
(PID.TID 0000.0001)                 9.503539809503193E+07,      /* J = 49 */
(PID.TID 0000.0001)                 9.566082748163140E+07,      /* J = 50 */
(PID.TID 0000.0001)                 9.628596546870193E+07,      /* J = 51 */
(PID.TID 0000.0001)                 9.691081015209354E+07,      /* J = 52 */
(PID.TID 0000.0001)                 9.753535962826957E+07,      /* J = 53 */
(PID.TID 0000.0001)      . . .
(PID.TID 0000.0001)                 1.099614325987181E+08,      /* J = 73 */
(PID.TID 0000.0001)                 1.105793446869293E+08,      /* J = 74 */
(PID.TID 0000.0001)                 1.111969199312560E+08,      /* J = 75 */
(PID.TID 0000.0001)                 1.118141564504991E+08,      /* J = 76 */
(PID.TID 0000.0001)                 1.124310523644033E+08,      /* J = 77 */
(PID.TID 0000.0001)                 1.130476057938687E+08,      /* J = 78 */
(PID.TID 0000.0001)      . . .
(PID.TID 0000.0001)                 1.253038681465364E+08,      /* J = 98 */
(PID.TID 0000.0001)                 1.259127972112936E+08,      /* J = 99 */
(PID.TID 0000.0001)                 1.265213427237870E+08       /* J =100 */
(PID.TID 0000.0001)     ;
(PID.TID 0000.0001) rAs =  /* rAs(:,1,:,1) ( units: m^2 ) */
(PID.TID 0000.0001)    50 @  6.439097919401864E+07              /* I =  1: 50 */
(PID.TID 0000.0001)     ;
(PID.TID 0000.0001) rAs =  /* rAs(1,:,1,:) ( units: m^2 ) */
(PID.TID 0000.0001)                 6.439097919401864E+07,      /* J =  1 */
(PID.TID 0000.0001)                 6.502823906837179E+07,      /* J =  2 */
(PID.TID 0000.0001)                 6.566530085543716E+07,      /* J =  3 */
(PID.TID 0000.0001)      . . .
(PID.TID 0000.0001)                 7.836195435256335E+07,      /* J = 23 */
(PID.TID 0000.0001)                 7.899440900921808E+07,      /* J = 24 */
(PID.TID 0000.0001)                 7.962662303520055E+07,      /* J = 25 */
(PID.TID 0000.0001)                 8.025859450470714E+07,      /* J = 26 */
(PID.TID 0000.0001)                 8.089032149259475E+07,      /* J = 27 */
(PID.TID 0000.0001)                 8.152180207452223E+07,      /* J = 28 */
(PID.TID 0000.0001)      . . .
(PID.TID 0000.0001)                 9.409671180895932E+07,      /* J = 48 */
(PID.TID 0000.0001)                 9.472257472228888E+07,      /* J = 49 */
(PID.TID 0000.0001)                 9.534814909420149E+07,      /* J = 50 */
(PID.TID 0000.0001)                 9.597343301913190E+07,      /* J = 51 */
(PID.TID 0000.0001)                 9.659842459236403E+07,      /* J = 52 */
(PID.TID 0000.0001)                 9.722312190998378E+07,      /* J = 53 */
(PID.TID 0000.0001)      . . .
(PID.TID 0000.0001)                 1.096523508263446E+08,      /* J = 73 */
(PID.TID 0000.0001)                 1.102704306306916E+08,      /* J = 74 */
(PID.TID 0000.0001)                 1.108881745321664E+08,      /* J = 75 */
(PID.TID 0000.0001)                 1.115055806490511E+08,      /* J = 76 */
(PID.TID 0000.0001)                 1.121226471005947E+08,      /* J = 77 */
(PID.TID 0000.0001)                 1.127393720071080E+08,      /* J = 78 */
(PID.TID 0000.0001)      . . .
(PID.TID 0000.0001)                 1.249992603617116E+08,      /* J = 98 */
(PID.TID 0000.0001)                 1.256083805070198E+08,      /* J = 99 */
(PID.TID 0000.0001)                 1.262171180274426E+08       /* J =100 */
(PID.TID 0000.0001)     ;
(PID.TID 0000.0001) globalArea = /* Integrated horizontal Area (m^2) */
(PID.TID 0000.0001)                 4.665024516720103E+11
(PID.TID 0000.0001)     ;
(PID.TID 0000.0001) // =======================================================
(PID.TID 0000.0001) // End of Model config. summary
(PID.TID 0000.0001) // =======================================================
(PID.TID 0000.0001) 
(PID.TID 0000.0001) == Packages configuration : Check & print summary ==
(PID.TID 0000.0001) 
(PID.TID 0000.0001) SHELFICE_CHECK: #define ALLOW_SHELFICE
(PID.TID 0000.0001) ICEFRONT_CHECK: #define ALLOW_ICEFRONT
(PID.TID 0000.0001) GAD_CHECK: #define ALLOW_GENERIC_ADVDIFF
(PID.TID 0000.0001) // =======================================================
(PID.TID 0000.0001) // Check Model config. (CONFIG_CHECK):
(PID.TID 0000.0001) // CONFIG_CHECK : Normal End
(PID.TID 0000.0001) // =======================================================
(PID.TID 0000.0001) 
(PID.TID 0000.0001) Start initial hydrostatic pressure computation
(PID.TID 0000.0001) Pressure is predetermined for buoyancyRelation OCEANIC
(PID.TID 0000.0001) 
(PID.TID 0000.0001)  write diagnostics summary to file ioUnit:      6
Iter.Nb:         0 ; Time(s):  0.0000000000000E+00
------------------------------------------------------------------------
2D/3D diagnostics: Number of lists:     2
------------------------------------------------------------------------
listId=    1 ; file name: shelficeDiag
 nFlds, nActive,       freq     &     phase        , nLev               
    2  |    2  |     18000.000000         0.000000 |   1
 levels:   1
 diag# | name   |   ipt  |  iMate | kLev|   count |   mate.C|           
   190 |SHIfwFlx|      1 |      0 |   1 |       0 |
   191 |SHIhtFlx|      2 |      0 |   1 |       0 |
------------------------------------------------------------------------
listId=    2 ; file name: icefrontDiag
 nFlds, nActive,       freq     &     phase        , nLev               
    2  |    2  |     18000.000000         0.000000 |  30
 levels:   1   2   3   4   5   6   7   8   9  10  11  12  13  14  15  16  17  18  19  20  21  22  23  24  25
 levels:  26  27  28  29  30
 diag# | name   |   ipt  |  iMate | kLev|   count |   mate.C|           
   198 |ICFfwFlx|      3 |      0 |  30 |       0 |
   199 |ICFhtFlx|     33 |      0 |  30 |       0 |
------------------------------------------------------------------------
Global & Regional Statistics diagnostics: Number of lists:     0
------------------------------------------------------------------------
(PID.TID 0000.0001) // =======================================================
(PID.TID 0000.0001) // Model current state
(PID.TID 0000.0001) // =======================================================
(PID.TID 0000.0001) 
(PID.TID 0000.0001) // =======================================================
(PID.TID 0000.0001) // Begin MONITOR dynamic field statistics
(PID.TID 0000.0001) // =======================================================
(PID.TID 0000.0001) %MON time_tsnumber                =                     0
(PID.TID 0000.0001) %MON time_secondsf                =   0.0000000000000E+00
(PID.TID 0000.0001) %MON dynstat_eta_max              =   0.0000000000000E+00
(PID.TID 0000.0001) %MON dynstat_eta_min              =   0.0000000000000E+00
(PID.TID 0000.0001) %MON dynstat_eta_mean             =   0.0000000000000E+00
(PID.TID 0000.0001) %MON dynstat_eta_sd               =   0.0000000000000E+00
(PID.TID 0000.0001) %MON dynstat_eta_del2             =   0.0000000000000E+00
(PID.TID 0000.0001) %MON dynstat_uvel_max             =   0.0000000000000E+00
(PID.TID 0000.0001) %MON dynstat_uvel_min             =   0.0000000000000E+00
(PID.TID 0000.0001) %MON dynstat_uvel_mean            =   0.0000000000000E+00
(PID.TID 0000.0001) %MON dynstat_uvel_sd              =   0.0000000000000E+00
(PID.TID 0000.0001) %MON dynstat_uvel_del2            =   0.0000000000000E+00
(PID.TID 0000.0001) %MON dynstat_vvel_max             =   0.0000000000000E+00
(PID.TID 0000.0001) %MON dynstat_vvel_min             =   0.0000000000000E+00
(PID.TID 0000.0001) %MON dynstat_vvel_mean            =   0.0000000000000E+00
(PID.TID 0000.0001) %MON dynstat_vvel_sd              =   0.0000000000000E+00
(PID.TID 0000.0001) %MON dynstat_vvel_del2            =   0.0000000000000E+00
(PID.TID 0000.0001) %MON dynstat_wvel_max             =  -0.0000000000000E+00
(PID.TID 0000.0001) %MON dynstat_wvel_min             =  -0.0000000000000E+00
(PID.TID 0000.0001) %MON dynstat_wvel_mean            =   0.0000000000000E+00
(PID.TID 0000.0001) %MON dynstat_wvel_sd              =   0.0000000000000E+00
(PID.TID 0000.0001) %MON dynstat_wvel_del2            =   0.0000000000000E+00
(PID.TID 0000.0001) %MON dynstat_theta_max            =  -1.9000000000000E+00
(PID.TID 0000.0001) %MON dynstat_theta_min            =  -1.9000000000000E+00
(PID.TID 0000.0001) %MON dynstat_theta_mean           =  -1.9000000000001E+00
(PID.TID 0000.0001) %MON dynstat_theta_sd             =   5.0626169922908E-14
(PID.TID 0000.0001) %MON dynstat_theta_del2           =   0.0000000000000E+00
(PID.TID 0000.0001) %MON dynstat_salt_max             =   3.4400000000000E+01
(PID.TID 0000.0001) %MON dynstat_salt_min             =   3.4400000000000E+01
(PID.TID 0000.0001) %MON dynstat_salt_mean            =   3.4400000000003E+01
(PID.TID 0000.0001) %MON dynstat_salt_sd              =   3.3608671401455E-12
(PID.TID 0000.0001) %MON dynstat_salt_del2            =   0.0000000000000E+00
(PID.TID 0000.0001) %MON advcfl_uvel_max              =   0.0000000000000E+00
(PID.TID 0000.0001) %MON advcfl_vvel_max              =   0.0000000000000E+00
(PID.TID 0000.0001) %MON advcfl_wvel_max              =   0.0000000000000E+00
(PID.TID 0000.0001) %MON advcfl_W_hf_max              =   0.0000000000000E+00
(PID.TID 0000.0001) %MON pe_b_mean                    =   0.0000000000000E+00
(PID.TID 0000.0001) %MON ke_max                       =   0.0000000000000E+00
(PID.TID 0000.0001) %MON ke_mean                      =   0.0000000000000E+00
(PID.TID 0000.0001) %MON ke_vol                       =   3.4703745874271E+14
(PID.TID 0000.0001) %MON vort_r_min                   =   0.0000000000000E+00
(PID.TID 0000.0001) %MON vort_r_max                   =   0.0000000000000E+00
(PID.TID 0000.0001) %MON vort_a_mean                  =  -1.3992981969633E-04
(PID.TID 0000.0001) %MON vort_a_sd                    =   1.7365065466767E-06
(PID.TID 0000.0001) %MON vort_p_mean                  =  -1.4746660593271E-04
(PID.TID 0000.0001) %MON vort_p_sd                    =   7.7973631850191E-05
(PID.TID 0000.0001) %MON surfExpan_theta_mean         =   0.0000000000000E+00
(PID.TID 0000.0001) %MON surfExpan_salt_mean          =   0.0000000000000E+00
(PID.TID 0000.0001) // =======================================================
(PID.TID 0000.0001) // End MONITOR dynamic field statistics
(PID.TID 0000.0001) // =======================================================
(PID.TID 0000.0001) SOLVE_FOR_PRESSURE: putPmEinXvector =    F
(PID.TID 0000.0001) SOLVE_FOR_PRESSURE: zeroPsNH=    F , zeroMeanPnh=    F
(PID.TID 0000.0001) SOLVE_FOR_PRESSURE: oldFreeSurfTerm =    F
 cg2d: Sum(rhs),rhsMax =  -1.31450406115619E-13  4.59731572276010E-09
(PID.TID 0000.0001)      cg2d_init_res =   1.44107621990967E+01
(PID.TID 0000.0001)      cg2d_iters(min,last) =      -1     212
(PID.TID 0000.0001)      cg2d_last_res =   9.39690652717257E-14
(PID.TID 0000.0001) // =======================================================
(PID.TID 0000.0001) // Begin MONITOR dynamic field statistics
(PID.TID 0000.0001) // =======================================================
(PID.TID 0000.0001) %MON time_tsnumber                =                     1
(PID.TID 0000.0001) %MON time_secondsf                =   1.8000000000000E+03
(PID.TID 0000.0001) %MON dynstat_eta_max              =   8.4447170963705E-10
(PID.TID 0000.0001) %MON dynstat_eta_min              =  -5.7950492778902E-10
(PID.TID 0000.0001) %MON dynstat_eta_mean             =   3.4524224441202E-26
(PID.TID 0000.0001) %MON dynstat_eta_sd               =   1.7020143244462E-10
(PID.TID 0000.0001) %MON dynstat_eta_del2             =   5.0280316540713E-12
(PID.TID 0000.0001) %MON dynstat_uvel_max             =   2.1880758942175E-10
(PID.TID 0000.0001) %MON dynstat_uvel_min             =  -2.0733345171322E-10
(PID.TID 0000.0001) %MON dynstat_uvel_mean            =  -1.1795658549673E-13
(PID.TID 0000.0001) %MON dynstat_uvel_sd              =   4.0010664451119E-11
(PID.TID 0000.0001) %MON dynstat_uvel_del2            =   2.5908774779012E-13
(PID.TID 0000.0001) %MON dynstat_vvel_max             =   1.6036443264482E-10
(PID.TID 0000.0001) %MON dynstat_vvel_min             =  -1.5705571366466E-10
(PID.TID 0000.0001) %MON dynstat_vvel_mean            =   1.1301301300654E-12
(PID.TID 0000.0001) %MON dynstat_vvel_sd              =   8.1734194442071E-12
(PID.TID 0000.0001) %MON dynstat_vvel_del2            =   3.7497171362377E-14
(PID.TID 0000.0001) %MON dynstat_wvel_max             =   1.5391551333155E-12
(PID.TID 0000.0001) %MON dynstat_wvel_min             =  -1.1638111964217E-12
(PID.TID 0000.0001) %MON dynstat_wvel_mean            =   1.0980150525139E-15
(PID.TID 0000.0001) %MON dynstat_wvel_sd              =   5.5793458620642E-14
(PID.TID 0000.0001) %MON dynstat_wvel_del2            =   3.3084933957861E-16
(PID.TID 0000.0001) %MON dynstat_theta_max            =  -1.9000000000000E+00
(PID.TID 0000.0001) %MON dynstat_theta_min            =  -1.9006851721692E+00
(PID.TID 0000.0001) %MON dynstat_theta_mean           =  -1.9000057696355E+00
(PID.TID 0000.0001) %MON dynstat_theta_sd             =   4.4667251429065E-05
(PID.TID 0000.0001) %MON dynstat_theta_del2           =   5.2801656006866E-08
(PID.TID 0000.0001) %MON dynstat_salt_max             =   3.4400000000000E+01
(PID.TID 0000.0001) %MON dynstat_salt_min             =   3.4399720387688E+01
(PID.TID 0000.0001) %MON dynstat_salt_mean            =   3.4399997656733E+01
(PID.TID 0000.0001) %MON dynstat_salt_sd              =   1.8183084584172E-05
(PID.TID 0000.0001) %MON dynstat_salt_del2            =   2.1472109078898E-08
(PID.TID 0000.0001) %MON advcfl_uvel_max              =   6.2280289617623E-11
(PID.TID 0000.0001) %MON advcfl_vvel_max              =   2.5963531105502E-11
(PID.TID 0000.0001) %MON advcfl_wvel_max              =   9.2349307998930E-11
(PID.TID 0000.0001) %MON advcfl_W_hf_max              =   9.2349307998930E-11
(PID.TID 0000.0001) %MON pe_b_mean                    =   4.8942278811817E-14
(PID.TID 0000.0001) %MON ke_max                       =   2.4035943577141E-20
(PID.TID 0000.0001) %MON ke_mean                      =   8.1769497024223E-22
(PID.TID 0000.0001) %MON ke_vol                       =   3.4703745874271E+14
(PID.TID 0000.0001) %MON vort_r_min                   =  -2.7567877600667E-14
(PID.TID 0000.0001) %MON vort_r_max                   =   2.6634637115188E-14
(PID.TID 0000.0001) %MON vort_a_mean                  =  -1.3992981969633E-04
(PID.TID 0000.0001) %MON vort_a_sd                    =   1.7365065464833E-06
(PID.TID 0000.0001) %MON vort_p_mean                  =  -1.4746660593272E-04
(PID.TID 0000.0001) %MON vort_p_sd                    =   7.7973631850606E-05
(PID.TID 0000.0001) %MON surfExpan_theta_mean         =   8.9636755404117E-19
(PID.TID 0000.0001) %MON surfExpan_salt_mean          =   3.5262584794374E-19
(PID.TID 0000.0001) // =======================================================
(PID.TID 0000.0001) // End MONITOR dynamic field statistics
(PID.TID 0000.0001) // =======================================================
 cg2d: Sum(rhs),rhsMax =   2.13162820728030E-14  1.14899245380523E-05
(PID.TID 0000.0001)      cg2d_init_res =   8.47231668196687E+00
(PID.TID 0000.0001)      cg2d_iters(min,last) =      -1     214
(PID.TID 0000.0001)      cg2d_last_res =   9.45786995084294E-14
(PID.TID 0000.0001) // =======================================================
(PID.TID 0000.0001) // Begin MONITOR dynamic field statistics
(PID.TID 0000.0001) // =======================================================
(PID.TID 0000.0001) %MON time_tsnumber                =                     2
(PID.TID 0000.0001) %MON time_secondsf                =   3.6000000000000E+03
(PID.TID 0000.0001) %MON dynstat_eta_max              =   1.4817906431459E-06
(PID.TID 0000.0001) %MON dynstat_eta_min              =  -1.5660926981162E-06
(PID.TID 0000.0001) %MON dynstat_eta_mean             =   9.9819687043175E-23
(PID.TID 0000.0001) %MON dynstat_eta_sd               =   4.7012123461436E-07
(PID.TID 0000.0001) %MON dynstat_eta_del2             =   4.3614211766107E-09
(PID.TID 0000.0001) %MON dynstat_uvel_max             =   4.3477765858688E-07
(PID.TID 0000.0001) %MON dynstat_uvel_min             =  -1.4122590508697E-06
(PID.TID 0000.0001) %MON dynstat_uvel_mean            =   3.6003153840179E-09
(PID.TID 0000.0001) %MON dynstat_uvel_sd              =   1.0155998379981E-07
(PID.TID 0000.0001) %MON dynstat_uvel_del2            =   3.1579394878744E-10
(PID.TID 0000.0001) %MON dynstat_vvel_max             =   5.6019507288756E-06
(PID.TID 0000.0001) %MON dynstat_vvel_min             =  -7.1985636116907E-07
(PID.TID 0000.0001) %MON dynstat_vvel_mean            =  -5.0830515191694E-08
(PID.TID 0000.0001) %MON dynstat_vvel_sd              =   3.1596191226077E-07
(PID.TID 0000.0001) %MON dynstat_vvel_del2            =   8.6172787618165E-10
(PID.TID 0000.0001) %MON dynstat_wvel_max             =   1.2936037578859E-08
(PID.TID 0000.0001) %MON dynstat_wvel_min             =  -1.7882238605766E-08
(PID.TID 0000.0001) %MON dynstat_wvel_mean            =  -4.0776720430690E-11
(PID.TID 0000.0001) %MON dynstat_wvel_sd              =   1.0613162775470E-09
(PID.TID 0000.0001) %MON dynstat_wvel_del2            =   1.0249962295984E-11
(PID.TID 0000.0001) %MON dynstat_theta_max            =  -1.9000000000000E+00
(PID.TID 0000.0001) %MON dynstat_theta_min            =  -1.9013688224855E+00
(PID.TID 0000.0001) %MON dynstat_theta_mean           =  -1.9000115286763E+00
(PID.TID 0000.0001) %MON dynstat_theta_sd             =   8.9223620669780E-05
(PID.TID 0000.0001) %MON dynstat_theta_del2           =   1.0525267221067E-07
(PID.TID 0000.0001) %MON dynstat_salt_max             =   3.4400000000000E+01
(PID.TID 0000.0001) %MON dynstat_salt_min             =   3.4399441399459E+01
(PID.TID 0000.0001) %MON dynstat_salt_mean            =   3.4399995317807E+01
(PID.TID 0000.0001) %MON dynstat_salt_sd              =   3.6320751221848E-05
(PID.TID 0000.0001) %MON dynstat_salt_del2            =   4.2801372487628E-08
(PID.TID 0000.0001) %MON advcfl_uvel_max              =   4.2020927537346E-07
(PID.TID 0000.0001) %MON advcfl_vvel_max              =   9.0697431844372E-07
(PID.TID 0000.0001) %MON advcfl_wvel_max              =   1.0729343163460E-06
(PID.TID 0000.0001) %MON advcfl_W_hf_max              =   1.2006539941711E-06
(PID.TID 0000.0001) %MON pe_b_mean                    =  -1.0884433478863E-09
(PID.TID 0000.0001) %MON ke_max                       =   9.2637461529403E-12
(PID.TID 0000.0001) %MON ke_mean                      =   5.5597743611836E-14
(PID.TID 0000.0001) %MON ke_vol                       =   3.4703745874271E+14
(PID.TID 0000.0001) %MON vort_r_min                   =  -9.4776416280552E-10
(PID.TID 0000.0001) %MON vort_r_max                   =   9.3443206525660E-10
(PID.TID 0000.0001) %MON vort_a_mean                  =  -1.3992981969617E-04
(PID.TID 0000.0001) %MON vort_a_sd                    =   1.7365065491118E-06
(PID.TID 0000.0001) %MON vort_p_mean                  =  -1.4746660593254E-04
(PID.TID 0000.0001) %MON vort_p_sd                    =   7.7973619317982E-05
(PID.TID 0000.0001) %MON surfExpan_theta_mean         =  -5.9370653412602E-14
(PID.TID 0000.0001) %MON surfExpan_salt_mean          =  -2.4071663544048E-14
(PID.TID 0000.0001) // =======================================================
(PID.TID 0000.0001) // End MONITOR dynamic field statistics
(PID.TID 0000.0001) // =======================================================
 cg2d: Sum(rhs),rhsMax =   1.70530256582424E-13  1.80588105667000E-05
(PID.TID 0000.0001)      cg2d_init_res =   3.35499494416707E+00
(PID.TID 0000.0001)      cg2d_iters(min,last) =      -1     214
(PID.TID 0000.0001)      cg2d_last_res =   9.22543574816540E-14
(PID.TID 0000.0001) // =======================================================
(PID.TID 0000.0001) // Begin MONITOR dynamic field statistics
(PID.TID 0000.0001) // =======================================================
(PID.TID 0000.0001) %MON time_tsnumber                =                     3
(PID.TID 0000.0001) %MON time_secondsf                =   5.4000000000000E+03
(PID.TID 0000.0001) %MON dynstat_eta_max              =   2.4476637938578E-06
(PID.TID 0000.0001) %MON dynstat_eta_min              =  -2.8663307839672E-06
(PID.TID 0000.0001) %MON dynstat_eta_mean             =   3.3273229014392E-22
(PID.TID 0000.0001) %MON dynstat_eta_sd               =   1.1670283990907E-06
(PID.TID 0000.0001) %MON dynstat_eta_del2             =   7.0890046642929E-09
(PID.TID 0000.0001) %MON dynstat_uvel_max             =   8.7560735923590E-07
(PID.TID 0000.0001) %MON dynstat_uvel_min             =  -4.8275235999372E-06
(PID.TID 0000.0001) %MON dynstat_uvel_mean            =   9.0695640056660E-09
(PID.TID 0000.0001) %MON dynstat_uvel_sd              =   3.1708550305352E-07
(PID.TID 0000.0001) %MON dynstat_uvel_del2            =   8.1425352861280E-10
(PID.TID 0000.0001) %MON dynstat_vvel_max             =   1.3884469174285E-05
(PID.TID 0000.0001) %MON dynstat_vvel_min             =  -1.8802113655958E-06
(PID.TID 0000.0001) %MON dynstat_vvel_mean            =  -1.1980356729540E-07
(PID.TID 0000.0001) %MON dynstat_vvel_sd              =   7.8804675921074E-07
(PID.TID 0000.0001) %MON dynstat_vvel_del2            =   2.1172885673976E-09
(PID.TID 0000.0001) %MON dynstat_wvel_max             =   3.5582052149255E-08
(PID.TID 0000.0001) %MON dynstat_wvel_min             =  -3.9572907734352E-08
(PID.TID 0000.0001) %MON dynstat_wvel_mean            =  -8.3650449705236E-11
(PID.TID 0000.0001) %MON dynstat_wvel_sd              =   2.5576881564055E-09
(PID.TID 0000.0001) %MON dynstat_wvel_del2            =   2.4648687084798E-11
(PID.TID 0000.0001) %MON dynstat_theta_max            =  -1.9000000000000E+00
(PID.TID 0000.0001) %MON dynstat_theta_min            =  -1.9020515257543E+00
(PID.TID 0000.0001) %MON dynstat_theta_mean           =  -1.9000172811233E+00
(PID.TID 0000.0001) %MON dynstat_theta_sd             =   1.3371104435601E-04
(PID.TID 0000.0001) %MON dynstat_theta_del2           =   1.5748848769964E-07
(PID.TID 0000.0001) %MON dynstat_salt_max             =   3.4400000000000E+01
(PID.TID 0000.0001) %MON dynstat_salt_min             =   3.4399162799589E+01
(PID.TID 0000.0001) %MON dynstat_salt_mean            =   3.4399992981584E+01
(PID.TID 0000.0001) %MON dynstat_salt_sd              =   5.4430177670105E-05
(PID.TID 0000.0001) %MON dynstat_salt_del2            =   6.4042819433628E-08
(PID.TID 0000.0001) %MON advcfl_uvel_max              =   1.4364009156313E-06
(PID.TID 0000.0001) %MON advcfl_vvel_max              =   2.2479414003750E-06
(PID.TID 0000.0001) %MON advcfl_wvel_max              =   2.3743744640611E-06
(PID.TID 0000.0001) %MON advcfl_W_hf_max              =   2.9697933635949E-06
(PID.TID 0000.0001) %MON pe_b_mean                    =  -3.0804529541489E-09
(PID.TID 0000.0001) %MON ke_max                       =   6.2615943746077E-11
(PID.TID 0000.0001) %MON ke_mean                      =   3.6282455349586E-13
(PID.TID 0000.0001) %MON ke_vol                       =   3.4703745874271E+14
(PID.TID 0000.0001) %MON vort_r_min                   =  -2.3507700132672E-09
(PID.TID 0000.0001) %MON vort_r_max                   =   2.3163392608662E-09
(PID.TID 0000.0001) %MON vort_a_mean                  =  -1.3992981969460E-04
(PID.TID 0000.0001) %MON vort_a_sd                    =   1.7365065519927E-06
(PID.TID 0000.0001) %MON vort_p_mean                  =  -1.4746660593089E-04
(PID.TID 0000.0001) %MON vort_p_sd                    =   7.7973587782087E-05
(PID.TID 0000.0001) %MON surfExpan_theta_mean         =  -1.8393784288444E-13
(PID.TID 0000.0001) %MON surfExpan_salt_mean          =  -7.4735440860073E-14
(PID.TID 0000.0001) // =======================================================
(PID.TID 0000.0001) // End MONITOR dynamic field statistics
(PID.TID 0000.0001) // =======================================================
 cg2d: Sum(rhs),rhsMax =   1.06581410364015E-13  2.46107948337595E-05
(PID.TID 0000.0001)      cg2d_init_res =   2.43586475487691E+00
(PID.TID 0000.0001)      cg2d_iters(min,last) =      -1     212
(PID.TID 0000.0001)      cg2d_last_res =   9.99958418020055E-14
(PID.TID 0000.0001) // =======================================================
(PID.TID 0000.0001) // Begin MONITOR dynamic field statistics
(PID.TID 0000.0001) // =======================================================
(PID.TID 0000.0001) %MON time_tsnumber                =                     4
(PID.TID 0000.0001) %MON time_secondsf                =   7.2000000000000E+03
(PID.TID 0000.0001) %MON dynstat_eta_max              =   4.0726716425654E-06
(PID.TID 0000.0001) %MON dynstat_eta_min              =  -4.1735930356478E-06
(PID.TID 0000.0001) %MON dynstat_eta_mean             =  -1.7302079087484E-21
(PID.TID 0000.0001) %MON dynstat_eta_sd               =   2.1117562118304E-06
(PID.TID 0000.0001) %MON dynstat_eta_del2             =   9.7853523905589E-09
(PID.TID 0000.0001) %MON dynstat_uvel_max             =   1.5278740566794E-06
(PID.TID 0000.0001) %MON dynstat_uvel_min             =  -1.0729872922621E-05
(PID.TID 0000.0001) %MON dynstat_uvel_mean            =   1.2990698586047E-08
(PID.TID 0000.0001) %MON dynstat_uvel_sd              =   6.9137551413022E-07
(PID.TID 0000.0001) %MON dynstat_uvel_del2            =   1.6400262270392E-09
(PID.TID 0000.0001) %MON dynstat_vvel_max             =   2.4215049844650E-05
(PID.TID 0000.0001) %MON dynstat_vvel_min             =  -3.3790895943892E-06
(PID.TID 0000.0001) %MON dynstat_vvel_mean            =  -1.9270669113787E-07
(PID.TID 0000.0001) %MON dynstat_vvel_sd              =   1.3797507087751E-06
(PID.TID 0000.0001) %MON dynstat_vvel_del2            =   3.6654041295729E-09
(PID.TID 0000.0001) %MON dynstat_wvel_max             =   6.8402884014608E-08
(PID.TID 0000.0001) %MON dynstat_wvel_min             =  -6.9454568721994E-08
(PID.TID 0000.0001) %MON dynstat_wvel_mean            =  -1.2732608700521E-10
(PID.TID 0000.0001) %MON dynstat_wvel_sd              =   4.4858428295625E-09
(PID.TID 0000.0001) %MON dynstat_wvel_del2            =   4.2453108887196E-11
(PID.TID 0000.0001) %MON dynstat_theta_max            =  -1.9000000000000E+00
(PID.TID 0000.0001) %MON dynstat_theta_min            =  -1.9027332830324E+00
(PID.TID 0000.0001) %MON dynstat_theta_mean           =  -1.9000230269844E+00
(PID.TID 0000.0001) %MON dynstat_theta_sd             =   1.7812962449592E-04
(PID.TID 0000.0001) %MON dynstat_theta_del2           =   2.0950964328946E-07
(PID.TID 0000.0001) %MON dynstat_salt_max             =   3.4400000000000E+01
(PID.TID 0000.0001) %MON dynstat_salt_min             =   3.4398884587641E+01
(PID.TID 0000.0001) %MON dynstat_salt_mean            =   3.4399990648062E+01
(PID.TID 0000.0001) %MON dynstat_salt_sd              =   7.2511405860300E-05
(PID.TID 0000.0001) %MON dynstat_salt_del2            =   8.5196710185809E-08
(PID.TID 0000.0001) %MON advcfl_uvel_max              =   3.1926098281241E-06
(PID.TID 0000.0001) %MON advcfl_vvel_max              =   3.9204965184228E-06
(PID.TID 0000.0001) %MON advcfl_wvel_max              =   4.1672741233196E-06
(PID.TID 0000.0001) %MON advcfl_W_hf_max              =   5.7409728044861E-06
(PID.TID 0000.0001) %MON pe_b_mean                    =  -5.9199539398349E-09
(PID.TID 0000.0001) %MON ke_max                       =   2.1300633157885E-10
(PID.TID 0000.0001) %MON ke_mean                      =   1.1919623460590E-12
(PID.TID 0000.0001) %MON ke_vol                       =   3.4703745874271E+14
(PID.TID 0000.0001) %MON vort_r_min                   =  -4.0998335860042E-09
(PID.TID 0000.0001) %MON vort_r_max                   =   4.0370989499461E-09
(PID.TID 0000.0001) %MON vort_a_mean                  =  -1.3992981968933E-04
(PID.TID 0000.0001) %MON vort_a_sd                    =   1.7365065500302E-06
(PID.TID 0000.0001) %MON vort_p_mean                  =  -1.4746660592534E-04
(PID.TID 0000.0001) %MON vort_p_sd                    =   7.7973532385293E-05
(PID.TID 0000.0001) %MON surfExpan_theta_mean         =  -3.7527202459826E-13
(PID.TID 0000.0001) %MON surfExpan_salt_mean          =  -1.5260051252943E-13
(PID.TID 0000.0001) // =======================================================
(PID.TID 0000.0001) // End MONITOR dynamic field statistics
(PID.TID 0000.0001) // =======================================================
 cg2d: Sum(rhs),rhsMax =   1.70530256582424E-13  3.11161279008013E-05
(PID.TID 0000.0001)      cg2d_init_res =   1.91891016892257E+00
(PID.TID 0000.0001)      cg2d_iters(min,last) =      -1     212
(PID.TID 0000.0001)      cg2d_last_res =   7.28502294329727E-14
(PID.TID 0000.0001) // =======================================================
(PID.TID 0000.0001) // Begin MONITOR dynamic field statistics
(PID.TID 0000.0001) // =======================================================
(PID.TID 0000.0001) %MON time_tsnumber                =                     5
(PID.TID 0000.0001) %MON time_secondsf                =   9.0000000000000E+03
(PID.TID 0000.0001) %MON dynstat_eta_max              =   6.3117600442692E-06
(PID.TID 0000.0001) %MON dynstat_eta_min              =  -5.3860523997985E-06
(PID.TID 0000.0001) %MON dynstat_eta_mean             =   3.1942299853816E-21
(PID.TID 0000.0001) %MON dynstat_eta_sd               =   3.2809599366352E-06
(PID.TID 0000.0001) %MON dynstat_eta_del2             =   1.2471794226431E-08
(PID.TID 0000.0001) %MON dynstat_uvel_max             =   2.7918198529081E-06
(PID.TID 0000.0001) %MON dynstat_uvel_min             =  -1.9426845564749E-05
(PID.TID 0000.0001) %MON dynstat_uvel_mean            =   1.3413211719071E-08
(PID.TID 0000.0001) %MON dynstat_uvel_sd              =   1.2454971090888E-06
(PID.TID 0000.0001) %MON dynstat_uvel_del2            =   2.8364125695613E-09
(PID.TID 0000.0001) %MON dynstat_vvel_max             =   3.5818866791204E-05
(PID.TID 0000.0001) %MON dynstat_vvel_min             =  -5.1027448839051E-06
(PID.TID 0000.0001) %MON dynstat_vvel_mean            =  -2.5677327445797E-07
(PID.TID 0000.0001) %MON dynstat_vvel_sd              =   2.0471522082937E-06
(PID.TID 0000.0001) %MON dynstat_vvel_del2            =   5.3861374327131E-09
(PID.TID 0000.0001) %MON dynstat_wvel_max             =   1.1719077936951E-07
(PID.TID 0000.0001) %MON dynstat_wvel_min             =  -1.1721950874834E-07
(PID.TID 0000.0001) %MON dynstat_wvel_mean            =  -1.6509087764616E-10
(PID.TID 0000.0001) %MON dynstat_wvel_sd              =   6.7415561405340E-09
(PID.TID 0000.0001) %MON dynstat_wvel_del2            =   6.2284741716177E-11
(PID.TID 0000.0001) %MON dynstat_theta_max            =  -1.9000000000000E+00
(PID.TID 0000.0001) %MON dynstat_theta_min            =  -1.9034140960019E+00
(PID.TID 0000.0001) %MON dynstat_theta_mean           =  -1.9000287662710E+00
(PID.TID 0000.0001) %MON dynstat_theta_sd             =   2.2247950764590E-04
(PID.TID 0000.0001) %MON dynstat_theta_del2           =   2.6131717010959E-07
(PID.TID 0000.0001) %MON dynstat_salt_max             =   3.4400000000000E+01
(PID.TID 0000.0001) %MON dynstat_salt_min             =   3.4398606762921E+01
(PID.TID 0000.0001) %MON dynstat_salt_mean            =   3.4399988317235E+01
(PID.TID 0000.0001) %MON dynstat_salt_sd              =   9.0564495980360E-05
(PID.TID 0000.0001) %MON dynstat_salt_del2            =   1.0626346778799E-07
(PID.TID 0000.0001) %MON advcfl_uvel_max              =   5.7803422768138E-06
(PID.TID 0000.0001) %MON advcfl_vvel_max              =   5.7991927933110E-06
(PID.TID 0000.0001) %MON advcfl_wvel_max              =   7.0331705249006E-06
(PID.TID 0000.0001) %MON advcfl_W_hf_max              =   9.5114687497203E-06
(PID.TID 0000.0001) %MON pe_b_mean                    =  -9.4671797938172E-09
(PID.TID 0000.0001) %MON ke_max                       =   5.2967956755656E-10
(PID.TID 0000.0001) %MON ke_mean                      =   2.8604914442106E-12
(PID.TID 0000.0001) %MON ke_vol                       =   3.4703745874271E+14
(PID.TID 0000.0001) %MON vort_r_min                   =  -6.0644679249186E-09
(PID.TID 0000.0001) %MON vort_r_max                   =   5.9661947094348E-09
(PID.TID 0000.0001) %MON vort_a_mean                  =  -1.3992981967855E-04
(PID.TID 0000.0001) %MON vort_a_sd                    =   1.7365065465528E-06
(PID.TID 0000.0001) %MON vort_p_mean                  =  -1.4746660591397E-04
(PID.TID 0000.0001) %MON vort_p_sd                    =   7.7973450096960E-05
(PID.TID 0000.0001) %MON surfExpan_theta_mean         =  -6.0997997388389E-13
(PID.TID 0000.0001) %MON surfExpan_salt_mean          =  -2.4813561947416E-13
(PID.TID 0000.0001) // =======================================================
(PID.TID 0000.0001) // End MONITOR dynamic field statistics
(PID.TID 0000.0001) // =======================================================
 cg2d: Sum(rhs),rhsMax =   1.42108547152020E-14  3.75142102955862E-05
(PID.TID 0000.0001)      cg2d_init_res =   1.58338978264876E+00
(PID.TID 0000.0001)      cg2d_iters(min,last) =      -1     211
(PID.TID 0000.0001)      cg2d_last_res =   8.57510489161415E-14
(PID.TID 0000.0001) // =======================================================
(PID.TID 0000.0001) // Begin MONITOR dynamic field statistics
(PID.TID 0000.0001) // =======================================================
(PID.TID 0000.0001) %MON time_tsnumber                =                     6
(PID.TID 0000.0001) %MON time_secondsf                =   1.0800000000000E+04
(PID.TID 0000.0001) %MON dynstat_eta_max              =   8.6893658659294E-06
(PID.TID 0000.0001) %MON dynstat_eta_min              =  -6.4499504379321E-06
(PID.TID 0000.0001) %MON dynstat_eta_mean             =  -2.1294866569211E-21
(PID.TID 0000.0001) %MON dynstat_eta_sd               =   4.6253008977464E-06
(PID.TID 0000.0001) %MON dynstat_eta_del2             =   1.5144915157928E-08
(PID.TID 0000.0001) %MON dynstat_uvel_max             =   4.4858444030111E-06
(PID.TID 0000.0001) %MON dynstat_uvel_min             =  -3.1016798565273E-05
(PID.TID 0000.0001) %MON dynstat_uvel_mean            =   1.0197538043720E-08
(PID.TID 0000.0001) %MON dynstat_uvel_sd              =   1.9869148584358E-06
(PID.TID 0000.0001) %MON dynstat_uvel_del2            =   4.4156088845161E-09
(PID.TID 0000.0001) %MON dynstat_vvel_max             =   4.7895662236033E-05
(PID.TID 0000.0001) %MON dynstat_vvel_min             =  -6.9295911326139E-06
(PID.TID 0000.0001) %MON dynstat_vvel_mean            =  -3.0306240153875E-07
(PID.TID 0000.0001) %MON dynstat_vvel_sd              =   2.7432290648934E-06
(PID.TID 0000.0001) %MON dynstat_vvel_del2            =   7.1586770611429E-09
(PID.TID 0000.0001) %MON dynstat_wvel_max             =   1.7894667012958E-07
(PID.TID 0000.0001) %MON dynstat_wvel_min             =  -1.7713070722025E-07
(PID.TID 0000.0001) %MON dynstat_wvel_mean            =  -1.9228103206631E-10
(PID.TID 0000.0001) %MON dynstat_wvel_sd              =   9.2300564948818E-09
(PID.TID 0000.0001) %MON dynstat_wvel_del2            =   8.2814653222632E-11
(PID.TID 0000.0001) %MON dynstat_theta_max            =  -1.9000000000000E+00
(PID.TID 0000.0001) %MON dynstat_theta_min            =  -1.9040939664861E+00
(PID.TID 0000.0001) %MON dynstat_theta_mean           =  -1.9000344989945E+00
(PID.TID 0000.0001) %MON dynstat_theta_sd             =   2.6676084048512E-04
(PID.TID 0000.0001) %MON dynstat_theta_del2           =   3.1291210933457E-07
(PID.TID 0000.0001) %MON dynstat_salt_max             =   3.4400000000000E+01
(PID.TID 0000.0001) %MON dynstat_salt_min             =   3.4398329324678E+01
(PID.TID 0000.0001) %MON dynstat_salt_mean            =   3.4399985989099E+01
(PID.TID 0000.0001) %MON dynstat_salt_sd              =   1.0858950826715E-04
(PID.TID 0000.0001) %MON dynstat_salt_del2            =   1.2724351726003E-07
(PID.TID 0000.0001) %MON advcfl_uvel_max              =   9.2288638132582E-06
(PID.TID 0000.0001) %MON advcfl_vvel_max              =   7.7544658486591E-06
(PID.TID 0000.0001) %MON advcfl_wvel_max              =   1.0736800207775E-05
(PID.TID 0000.0001) %MON advcfl_W_hf_max              =   1.4111979232154E-05
(PID.TID 0000.0001) %MON pe_b_mean                    =  -1.3524644381903E-08
(PID.TID 0000.0001) %MON ke_max                       =   1.0915688226383E-09
(PID.TID 0000.0001) %MON ke_mean                      =   5.6925460657430E-12
(PID.TID 0000.0001) %MON ke_vol                       =   3.4703745874271E+14
(PID.TID 0000.0001) %MON vort_r_min                   =  -8.1091819310287E-09
(PID.TID 0000.0001) %MON vort_r_max                   =   7.9679461628345E-09
(PID.TID 0000.0001) %MON vort_a_mean                  =  -1.3992981966250E-04
(PID.TID 0000.0001) %MON vort_a_sd                    =   1.7365065397391E-06
(PID.TID 0000.0001) %MON vort_p_mean                  =  -1.4746660589706E-04
(PID.TID 0000.0001) %MON vort_p_sd                    =   7.7973339888992E-05
(PID.TID 0000.0001) %MON surfExpan_theta_mean         =  -8.5339770073227E-13
(PID.TID 0000.0001) %MON surfExpan_salt_mean          =  -3.4721461811788E-13
(PID.TID 0000.0001) // =======================================================
(PID.TID 0000.0001) // End MONITOR dynamic field statistics
(PID.TID 0000.0001) // =======================================================
 cg2d: Sum(rhs),rhsMax =   5.68434188608080E-14  4.37883180027671E-05
(PID.TID 0000.0001)      cg2d_init_res =   1.34935860863468E+00
(PID.TID 0000.0001)      cg2d_iters(min,last) =      -1     209
(PID.TID 0000.0001)      cg2d_last_res =   9.53716837689192E-14
(PID.TID 0000.0001) // =======================================================
(PID.TID 0000.0001) // Begin MONITOR dynamic field statistics
(PID.TID 0000.0001) // =======================================================
(PID.TID 0000.0001) %MON time_tsnumber                =                     7
(PID.TID 0000.0001) %MON time_secondsf                =   1.2600000000000E+04
(PID.TID 0000.0001) %MON dynstat_eta_max              =   1.1164038948522E-05
(PID.TID 0000.0001) %MON dynstat_eta_min              =  -7.3847796569138E-06
(PID.TID 0000.0001) %MON dynstat_eta_mean             =  -4.2589733138421E-21
(PID.TID 0000.0001) %MON dynstat_eta_sd               =   6.0693127341335E-06
(PID.TID 0000.0001) %MON dynstat_eta_del2             =   1.7803996912173E-08
(PID.TID 0000.0001) %MON dynstat_uvel_max             =   6.6339712030392E-06
(PID.TID 0000.0001) %MON dynstat_uvel_min             =  -4.5390882755930E-05
(PID.TID 0000.0001) %MON dynstat_uvel_mean            =   4.5656292036098E-09
(PID.TID 0000.0001) %MON dynstat_uvel_sd              =   2.9102216543226E-06
(PID.TID 0000.0001) %MON dynstat_uvel_del2            =   6.3630081622853E-09
(PID.TID 0000.0001) %MON dynstat_vvel_max             =   5.9667524100480E-05
(PID.TID 0000.0001) %MON dynstat_vvel_min             =  -8.7416310714137E-06
(PID.TID 0000.0001) %MON dynstat_vvel_mean            =  -3.2711033197564E-07
(PID.TID 0000.0001) %MON dynstat_vvel_sd              =   3.4213601052703E-06
(PID.TID 0000.0001) %MON dynstat_vvel_del2            =   8.8689600116201E-09
(PID.TID 0000.0001) %MON dynstat_wvel_max             =   2.5245880097374E-07
(PID.TID 0000.0001) %MON dynstat_wvel_min             =  -2.4792206878900E-07
(PID.TID 0000.0001) %MON dynstat_wvel_mean            =  -2.0625941673359E-10
(PID.TID 0000.0001) %MON dynstat_wvel_sd              =   1.1862606594874E-08
(PID.TID 0000.0001) %MON dynstat_wvel_del2            =   1.0280175440601E-10
(PID.TID 0000.0001) %MON dynstat_theta_max            =  -1.9000000000000E+00
(PID.TID 0000.0001) %MON dynstat_theta_min            =  -1.9047728964870E+00
(PID.TID 0000.0001) %MON dynstat_theta_mean           =  -1.9000402251665E+00
(PID.TID 0000.0001) %MON dynstat_theta_sd             =   3.1097376984569E-04
(PID.TID 0000.0001) %MON dynstat_theta_del2           =   3.6429321238540E-07
(PID.TID 0000.0001) %MON dynstat_salt_max             =   3.4400000000000E+01
(PID.TID 0000.0001) %MON dynstat_salt_min             =   3.4398052272088E+01
(PID.TID 0000.0001) %MON dynstat_salt_mean            =   3.4399983663650E+01
(PID.TID 0000.0001) %MON dynstat_salt_sd              =   1.2658650302204E-04
(PID.TID 0000.0001) %MON dynstat_salt_del2            =   1.4813643967073E-07
(PID.TID 0000.0001) %MON advcfl_uvel_max              =   1.3505787015268E-05
(PID.TID 0000.0001) %MON advcfl_vvel_max              =   9.6603691505725E-06
(PID.TID 0000.0001) %MON advcfl_wvel_max              =   1.5147528058425E-05
(PID.TID 0000.0001) %MON advcfl_W_hf_max              =   1.9414497928204E-05
(PID.TID 0000.0001) %MON pe_b_mean                    =  -1.7854313725299E-08
(PID.TID 0000.0001) %MON ke_max                       =   1.9775480955694E-09
(PID.TID 0000.0001) %MON ke_mean                      =   9.9775418480802E-12
(PID.TID 0000.0001) %MON ke_vol                       =   3.4703745874271E+14
(PID.TID 0000.0001) %MON vort_r_min                   =  -1.0102267840465E-08
(PID.TID 0000.0001) %MON vort_r_max                   =   9.9109828187580E-09
(PID.TID 0000.0001) %MON vort_a_mean                  =  -1.3992981964355E-04
(PID.TID 0000.0001) %MON vort_a_sd                    =   1.7365065226040E-06
(PID.TID 0000.0001) %MON vort_p_mean                  =  -1.4746660587709E-04
(PID.TID 0000.0001) %MON vort_p_sd                    =   7.7973202685088E-05
(PID.TID 0000.0001) %MON surfExpan_theta_mean         =  -1.0677663206339E-12
(PID.TID 0000.0001) %MON surfExpan_salt_mean          =  -4.3445203613985E-13
(PID.TID 0000.0001) // =======================================================
(PID.TID 0000.0001) // End MONITOR dynamic field statistics
(PID.TID 0000.0001) // =======================================================
 cg2d: Sum(rhs),rhsMax =  -1.56319401867222E-13  4.99315989241185E-05
(PID.TID 0000.0001)      cg2d_init_res =   1.17695654140150E+00
(PID.TID 0000.0001)      cg2d_iters(min,last) =      -1     208
(PID.TID 0000.0001)      cg2d_last_res =   8.30112949160311E-14
(PID.TID 0000.0001) // =======================================================
(PID.TID 0000.0001) // Begin MONITOR dynamic field statistics
(PID.TID 0000.0001) // =======================================================
(PID.TID 0000.0001) %MON time_tsnumber                =                     8
(PID.TID 0000.0001) %MON time_secondsf                =   1.4400000000000E+04
(PID.TID 0000.0001) %MON dynstat_eta_max              =   1.3606652051013E-05
(PID.TID 0000.0001) %MON dynstat_eta_min              =  -8.1934357973043E-06
(PID.TID 0000.0001) %MON dynstat_eta_mean             =  -3.7266016496119E-21
(PID.TID 0000.0001) %MON dynstat_eta_sd               =   7.5259806860460E-06
(PID.TID 0000.0001) %MON dynstat_eta_del2             =   2.0448209467475E-08
(PID.TID 0000.0001) %MON dynstat_uvel_max             =   9.1742133060896E-06
(PID.TID 0000.0001) %MON dynstat_uvel_min             =  -6.2256365076891E-05
(PID.TID 0000.0001) %MON dynstat_uvel_mean            =  -1.7633067652340E-09
(PID.TID 0000.0001) %MON dynstat_uvel_sd              =   3.9982403681120E-06
(PID.TID 0000.0001) %MON dynstat_uvel_del2            =   8.6408225725771E-09
(PID.TID 0000.0001) %MON dynstat_vvel_max             =   7.0426702021820E-05
(PID.TID 0000.0001) %MON dynstat_vvel_min             =  -1.0433385389508E-05
(PID.TID 0000.0001) %MON dynstat_vvel_mean            =  -3.2845494166384E-07
(PID.TID 0000.0001) %MON dynstat_vvel_sd              =   4.0384677837740E-06
(PID.TID 0000.0001) %MON dynstat_vvel_del2            =   1.0416723138380E-08
(PID.TID 0000.0001) %MON dynstat_wvel_max             =   3.3587340180335E-07
(PID.TID 0000.0001) %MON dynstat_wvel_min             =  -3.2770743284007E-07
(PID.TID 0000.0001) %MON dynstat_wvel_mean            =  -2.0646179120006E-10
(PID.TID 0000.0001) %MON dynstat_wvel_sd              =   1.4560325703484E-08
(PID.TID 0000.0001) %MON dynstat_wvel_del2            =   1.2117380319123E-10
(PID.TID 0000.0001) %MON dynstat_theta_max            =  -1.9000000000000E+00
(PID.TID 0000.0001) %MON dynstat_theta_min            =  -1.9054508882035E+00
(PID.TID 0000.0001) %MON dynstat_theta_mean           =  -1.9000459447986E+00
(PID.TID 0000.0001) %MON dynstat_theta_sd             =   3.5511844227953E-04
(PID.TID 0000.0001) %MON dynstat_theta_del2           =   4.1546506108496E-07
(PID.TID 0000.0001) %MON dynstat_salt_max             =   3.4400000000000E+01
(PID.TID 0000.0001) %MON dynstat_salt_min             =   3.4397775604247E+01
(PID.TID 0000.0001) %MON dynstat_salt_mean            =   3.4399981340882E+01
(PID.TID 0000.0001) %MON dynstat_salt_sd              =   1.4455554044041E-04
(PID.TID 0000.0001) %MON dynstat_salt_del2            =   1.6894387165308E-07
(PID.TID 0000.0001) %MON advcfl_uvel_max              =   1.8524010903124E-05
(PID.TID 0000.0001) %MON advcfl_vvel_max              =   1.1402315578613E-05
(PID.TID 0000.0001) %MON advcfl_wvel_max              =   2.0152404108201E-05
(PID.TID 0000.0001) %MON advcfl_W_hf_max              =   2.5258738263641E-05
(PID.TID 0000.0001) %MON pe_b_mean                    =  -2.2203519022059E-08
(PID.TID 0000.0001) %MON ke_max                       =   3.2548827156563E-09
(PID.TID 0000.0001) %MON ke_mean                      =   1.5931251312915E-11
(PID.TID 0000.0001) %MON ke_vol                       =   3.4703745874271E+14
(PID.TID 0000.0001) %MON vort_r_min                   =  -1.1923896921664E-08
(PID.TID 0000.0001) %MON vort_r_max                   =   1.1676649158082E-08
(PID.TID 0000.0001) %MON vort_a_mean                  =  -1.3992981962502E-04
(PID.TID 0000.0001) %MON vort_a_sd                    =   1.7365064843885E-06
(PID.TID 0000.0001) %MON vort_p_mean                  =  -1.4746660585757E-04
(PID.TID 0000.0001) %MON vort_p_sd                    =   7.7973041153962E-05
(PID.TID 0000.0001) %MON surfExpan_theta_mean         =  -1.2202447031262E-12
(PID.TID 0000.0001) %MON surfExpan_salt_mean          =  -4.9647059055706E-13
(PID.TID 0000.0001) // =======================================================
(PID.TID 0000.0001) // End MONITOR dynamic field statistics
(PID.TID 0000.0001) // =======================================================
 cg2d: Sum(rhs),rhsMax =  -1.77635683940025E-13  5.59460517843077E-05
(PID.TID 0000.0001)      cg2d_init_res =   1.04473272344757E+00
(PID.TID 0000.0001)      cg2d_iters(min,last) =      -1     208
(PID.TID 0000.0001)      cg2d_last_res =   8.02581593075526E-14
(PID.TID 0000.0001) // =======================================================
(PID.TID 0000.0001) // Begin MONITOR dynamic field statistics
(PID.TID 0000.0001) // =======================================================
(PID.TID 0000.0001) %MON time_tsnumber                =                     9
(PID.TID 0000.0001) %MON time_secondsf                =   1.6200000000000E+04
(PID.TID 0000.0001) %MON dynstat_eta_max              =   1.6328127663398E-05
(PID.TID 0000.0001) %MON dynstat_eta_min              =  -8.8464505978093E-06
(PID.TID 0000.0001) %MON dynstat_eta_mean             =  -6.9208316349935E-21
(PID.TID 0000.0001) %MON dynstat_eta_sd               =   8.9137614804567E-06
(PID.TID 0000.0001) %MON dynstat_eta_del2             =   2.3076890614222E-08
(PID.TID 0000.0001) %MON dynstat_uvel_max             =   1.2044763484208E-05
(PID.TID 0000.0001) %MON dynstat_uvel_min             =  -8.1172288996290E-05
(PID.TID 0000.0001) %MON dynstat_uvel_mean            =  -7.3169689992590E-09
(PID.TID 0000.0001) %MON dynstat_uvel_sd              =   5.2237872125469E-06
(PID.TID 0000.0001) %MON dynstat_uvel_del2            =   1.1192467269955E-08
(PID.TID 0000.0001) %MON dynstat_vvel_max             =   7.9577146039844E-05
(PID.TID 0000.0001) %MON dynstat_vvel_min             =  -1.1917005292630E-05
(PID.TID 0000.0001) %MON dynstat_vvel_mean            =  -3.0975600149258E-07
(PID.TID 0000.0001) %MON dynstat_vvel_sd              =   4.5576497943472E-06
(PID.TID 0000.0001) %MON dynstat_vvel_del2            =   1.1720288748817E-08
(PID.TID 0000.0001) %MON dynstat_wvel_max             =   4.2683438794104E-07
(PID.TID 0000.0001) %MON dynstat_wvel_min             =  -4.1414285275051E-07
(PID.TID 0000.0001) %MON dynstat_wvel_mean            =  -1.9427108927258E-10
(PID.TID 0000.0001) %MON dynstat_wvel_sd              =   1.7256098509971E-08
(PID.TID 0000.0001) %MON dynstat_wvel_del2            =   1.3708360790529E-10
(PID.TID 0000.0001) %MON dynstat_theta_max            =  -1.9000000000000E+00
(PID.TID 0000.0001) %MON dynstat_theta_min            =  -1.9061279440275E+00
(PID.TID 0000.0001) %MON dynstat_theta_mean           =  -1.9000516579023E+00
(PID.TID 0000.0001) %MON dynstat_theta_sd             =   3.9919500429728E-04
(PID.TID 0000.0001) %MON dynstat_theta_del2           =   4.6642988574459E-07
(PID.TID 0000.0001) %MON dynstat_salt_max             =   3.4400000000000E+01
(PID.TID 0000.0001) %MON dynstat_salt_min             =   3.4397499320172E+01
(PID.TID 0000.0001) %MON dynstat_salt_mean            =   3.4399979020791E+01
(PID.TID 0000.0001) %MON dynstat_salt_sd              =   1.6249668068813E-04
(PID.TID 0000.0001) %MON dynstat_salt_del2            =   1.8966686081135E-07
(PID.TID 0000.0001) %MON advcfl_uvel_max              =   2.4152331485169E-05
(PID.TID 0000.0001) %MON advcfl_vvel_max              =   1.2883802676299E-05
(PID.TID 0000.0001) %MON advcfl_wvel_max              =   2.5610063276462E-05
(PID.TID 0000.0001) %MON advcfl_W_hf_max              =   3.1461832155926E-05
(PID.TID 0000.0001) %MON pe_b_mean                    =  -2.6338525457423E-08
(PID.TID 0000.0001) %MON ke_max                       =   4.9680495075949E-09
(PID.TID 0000.0001) %MON ke_mean                      =   2.3663421995423E-11
(PID.TID 0000.0001) %MON ke_vol                       =   3.4703745874271E+14
(PID.TID 0000.0001) %MON vort_r_min                   =  -1.3473152362087E-08
(PID.TID 0000.0001) %MON vort_r_max                   =   1.3165972527643E-08
(PID.TID 0000.0001) %MON vort_a_mean                  =  -1.3992981960984E-04
(PID.TID 0000.0001) %MON vort_a_sd                    =   1.7365064190060E-06
(PID.TID 0000.0001) %MON vort_p_mean                  =  -1.4746660584157E-04
(PID.TID 0000.0001) %MON vort_p_sd                    =   7.7972859404372E-05
(PID.TID 0000.0001) %MON surfExpan_theta_mean         =  -1.2896374164286E-12
(PID.TID 0000.0001) %MON surfExpan_salt_mean          =  -5.2464100908447E-13
(PID.TID 0000.0001) // =======================================================
(PID.TID 0000.0001) // End MONITOR dynamic field statistics
(PID.TID 0000.0001) // =======================================================
 cg2d: Sum(rhs),rhsMax =  -1.56319401867222E-13  6.18421889730448E-05
(PID.TID 0000.0001)      cg2d_init_res =   9.39988000906010E-01
(PID.TID 0000.0001)      cg2d_iters(min,last) =      -1     208
(PID.TID 0000.0001)      cg2d_last_res =   8.94948776148794E-14
(PID.TID 0000.0001) // =======================================================
(PID.TID 0000.0001) // Begin MONITOR dynamic field statistics
(PID.TID 0000.0001) // =======================================================
(PID.TID 0000.0001) %MON time_tsnumber                =                    10
(PID.TID 0000.0001) %MON time_secondsf                =   1.8000000000000E+04
(PID.TID 0000.0001) %MON dynstat_eta_max              =   1.8901284142587E-05
(PID.TID 0000.0001) %MON dynstat_eta_min              =  -9.4627004984539E-06
(PID.TID 0000.0001) %MON dynstat_eta_mean             =   6.3884599707632E-21
(PID.TID 0000.0001) %MON dynstat_eta_sd               =   1.0169065601478E-05
(PID.TID 0000.0001) %MON dynstat_eta_del2             =   2.5689482660407E-08
(PID.TID 0000.0001) %MON dynstat_uvel_max             =   1.5164985769959E-05
(PID.TID 0000.0001) %MON dynstat_uvel_min             =  -1.0159030465599E-04
(PID.TID 0000.0001) %MON dynstat_uvel_mean            =  -1.1213858756015E-08
(PID.TID 0000.0001) %MON dynstat_uvel_sd              =   6.5519666035154E-06
(PID.TID 0000.0001) %MON dynstat_uvel_del2            =   1.3947696883259E-08
(PID.TID 0000.0001) %MON dynstat_vvel_max             =   8.6666757902317E-05
(PID.TID 0000.0001) %MON dynstat_vvel_min             =  -1.3125036831236E-05
(PID.TID 0000.0001) %MON dynstat_vvel_mean            =  -2.7584877533297E-07
(PID.TID 0000.0001) %MON dynstat_vvel_sd              =   4.9502558449731E-06
(PID.TID 0000.0001) %MON dynstat_vvel_del2            =   1.2720039087137E-08
(PID.TID 0000.0001) %MON dynstat_wvel_max             =   5.2265718286811E-07
(PID.TID 0000.0001) %MON dynstat_wvel_min             =  -5.0460517926767E-07
(PID.TID 0000.0001) %MON dynstat_wvel_mean            =  -1.7260302112498E-10
(PID.TID 0000.0001) %MON dynstat_wvel_sd              =   1.9895373644121E-08
(PID.TID 0000.0001) %MON dynstat_wvel_del2            =   1.4994931329375E-10
(PID.TID 0000.0001) %MON dynstat_theta_max            =  -1.9000000000000E+00
(PID.TID 0000.0001) %MON dynstat_theta_min            =  -1.9068040665189E+00
(PID.TID 0000.0001) %MON dynstat_theta_mean           =  -1.9000573644894E+00
(PID.TID 0000.0001) %MON dynstat_theta_sd             =   4.4320360223204E-04
(PID.TID 0000.0001) %MON dynstat_theta_del2           =   5.1718823853584E-07
(PID.TID 0000.0001) %MON dynstat_salt_max             =   3.4400000000000E+01
(PID.TID 0000.0001) %MON dynstat_salt_min             =   3.4397223418810E+01
(PID.TID 0000.0001) %MON dynstat_salt_mean            =   3.4399976703372E+01
(PID.TID 0000.0001) %MON dynstat_salt_sd              =   1.8040998385754E-04
(PID.TID 0000.0001) %MON dynstat_salt_del2            =   2.1030561974072E-07
(PID.TID 0000.0001) %MON advcfl_uvel_max              =   3.0227590524680E-05
(PID.TID 0000.0001) %MON advcfl_vvel_max              =   1.4031634243945E-05
(PID.TID 0000.0001) %MON advcfl_wvel_max              =   3.1359430972087E-05
(PID.TID 0000.0001) %MON advcfl_W_hf_max              =   3.7830285184471E-05
(PID.TID 0000.0001) %MON pe_b_mean                    =  -3.0075602178065E-08
(PID.TID 0000.0001) %MON ke_max                       =   7.1302201684489E-09
(PID.TID 0000.0001) %MON ke_mean                      =   3.3156289971438E-11
(PID.TID 0000.0001) %MON ke_vol                       =   3.4703745874271E+14
(PID.TID 0000.0001) %MON vort_r_min                   =  -1.4673489714766E-08
(PID.TID 0000.0001) %MON vort_r_max                   =   1.4304872456452E-08
(PID.TID 0000.0001) %MON vort_a_mean                  =  -1.3992981959989E-04
(PID.TID 0000.0001) %MON vort_a_sd                    =   1.7365063227800E-06
(PID.TID 0000.0001) %MON vort_p_mean                  =  -1.4746660583107E-04
(PID.TID 0000.0001) %MON vort_p_sd                    =   7.7972662623286E-05
(PID.TID 0000.0001) %MON surfExpan_theta_mean         =  -1.2703452112861E-12
(PID.TID 0000.0001) %MON surfExpan_salt_mean          =  -5.1668850155446E-13
(PID.TID 0000.0001) // =======================================================
(PID.TID 0000.0001) // End MONITOR dynamic field statistics
(PID.TID 0000.0001) // =======================================================
 Computing Diagnostic #    190  SHIfwFlx     Counter:      10   Parms: SM      L1      
 Computing Diagnostic #    191  SHIhtFlx     Counter:      10   Parms: SM      L1      
 Computing Diagnostic #    198  ICFfwFlx     Counter:      10   Parms: SM      MR      
 Computing Diagnostic #    199  ICFhtFlx     Counter:      10   Parms: SM      MR      
 cg2d: Sum(rhs),rhsMax =  -6.39488462184090E-14  6.76366799251385E-05
(PID.TID 0000.0001)      cg2d_init_res =   8.54731259453664E-01
(PID.TID 0000.0001)      cg2d_iters(min,last) =      -1     208
(PID.TID 0000.0001)      cg2d_last_res =   8.87663612245328E-14
(PID.TID 0000.0001) // =======================================================
(PID.TID 0000.0001) // Begin MONITOR dynamic field statistics
(PID.TID 0000.0001) // =======================================================
(PID.TID 0000.0001) %MON time_tsnumber                =                    11
(PID.TID 0000.0001) %MON time_secondsf                =   1.9800000000000E+04
(PID.TID 0000.0001) %MON dynstat_eta_max              =   2.1178654513209E-05
(PID.TID 0000.0001) %MON dynstat_eta_min              =  -1.0222555283368E-05
(PID.TID 0000.0001) %MON dynstat_eta_mean             =  -7.4532032992238E-21
(PID.TID 0000.0001) %MON dynstat_eta_sd               =   1.1253245602018E-05
(PID.TID 0000.0001) %MON dynstat_eta_del2             =   2.8285515725213E-08
(PID.TID 0000.0001) %MON dynstat_uvel_max             =   1.8441459729771E-05
(PID.TID 0000.0001) %MON dynstat_uvel_min             =  -1.2289716895141E-04
(PID.TID 0000.0001) %MON dynstat_uvel_mean            =  -1.3139542623498E-08
(PID.TID 0000.0001) %MON dynstat_uvel_sd              =   7.9428359088944E-06
(PID.TID 0000.0001) %MON dynstat_uvel_del2            =   1.6828219759013E-08
(PID.TID 0000.0001) %MON dynstat_vvel_max             =   9.1408037940093E-05
(PID.TID 0000.0001) %MON dynstat_vvel_min             =  -1.4012171674497E-05
(PID.TID 0000.0001) %MON dynstat_vvel_mean            =  -2.3279943494211E-07
(PID.TID 0000.0001) %MON dynstat_vvel_sd              =   5.1973411012698E-06
(PID.TID 0000.0001) %MON dynstat_vvel_del2            =   1.3380564108473E-08
(PID.TID 0000.0001) %MON dynstat_wvel_max             =   6.2052489611390E-07
(PID.TID 0000.0001) %MON dynstat_wvel_min             =  -5.9637931336817E-07
(PID.TID 0000.0001) %MON dynstat_wvel_mean            =  -1.4528916527693E-10
(PID.TID 0000.0001) %MON dynstat_wvel_sd              =   2.2435878284657E-08
(PID.TID 0000.0001) %MON dynstat_wvel_del2            =   1.5947578688671E-10
(PID.TID 0000.0001) %MON dynstat_theta_max            =  -1.9000000000000E+00
(PID.TID 0000.0001) %MON dynstat_theta_min            =  -1.9074792583622E+00
(PID.TID 0000.0001) %MON dynstat_theta_mean           =  -1.9000630645715E+00
(PID.TID 0000.0001) %MON dynstat_theta_sd             =   4.8714438192935E-04
(PID.TID 0000.0001) %MON dynstat_theta_del2           =   5.6774099078456E-07
(PID.TID 0000.0001) %MON dynstat_salt_max             =   3.4400000000000E+01
(PID.TID 0000.0001) %MON dynstat_salt_min             =   3.4396947899059E+01
(PID.TID 0000.0001) %MON dynstat_salt_mean            =   3.4399974388620E+01
(PID.TID 0000.0001) %MON dynstat_salt_sd              =   1.9829550984212E-04
(PID.TID 0000.0001) %MON dynstat_salt_del2            =   2.3086050024103E-07
(PID.TID 0000.0001) %MON advcfl_uvel_max              =   3.6567321185670E-05
(PID.TID 0000.0001) %MON advcfl_vvel_max              =   1.4799263135903E-05
(PID.TID 0000.0001) %MON advcfl_wvel_max              =   3.7231493766834E-05
(PID.TID 0000.0001) %MON advcfl_W_hf_max              =   4.4173462833539E-05
(PID.TID 0000.0001) %MON pe_b_mean                    =  -3.3301363893514E-08
(PID.TID 0000.0001) %MON ke_max                       =   9.7184830565949E-09
(PID.TID 0000.0001) %MON ke_mean                      =   4.4257275417363E-11
(PID.TID 0000.0001) %MON ke_vol                       =   3.4703745874271E+14
(PID.TID 0000.0001) %MON vort_r_min                   =  -1.5476232606654E-08
(PID.TID 0000.0001) %MON vort_r_max                   =   1.5047389642332E-08
(PID.TID 0000.0001) %MON vort_a_mean                  =  -1.3992981959591E-04
(PID.TID 0000.0001) %MON vort_a_sd                    =   1.7365061980026E-06
(PID.TID 0000.0001) %MON vort_p_mean                  =  -1.4746660582689E-04
(PID.TID 0000.0001) %MON vort_p_sd                    =   7.7972456683946E-05
(PID.TID 0000.0001) %MON surfExpan_theta_mean         =  -1.1728780989807E-12
(PID.TID 0000.0001) %MON surfExpan_salt_mean          =  -4.7689960336158E-13
(PID.TID 0000.0001) // =======================================================
(PID.TID 0000.0001) // End MONITOR dynamic field statistics
(PID.TID 0000.0001) // =======================================================
 cg2d: Sum(rhs),rhsMax =   2.55795384873636E-13  7.33493383953724E-05
(PID.TID 0000.0001)      cg2d_init_res =   7.83761344443216E-01
(PID.TID 0000.0001)      cg2d_iters(min,last) =      -1     208
(PID.TID 0000.0001)      cg2d_last_res =   7.79178366414412E-14
(PID.TID 0000.0001) // =======================================================
(PID.TID 0000.0001) // Begin MONITOR dynamic field statistics
(PID.TID 0000.0001) // =======================================================
(PID.TID 0000.0001) %MON time_tsnumber                =                    12
(PID.TID 0000.0001) %MON time_secondsf                =   2.1600000000000E+04
(PID.TID 0000.0001) %MON dynstat_eta_max              =   2.3114668673160E-05
(PID.TID 0000.0001) %MON dynstat_eta_min              =  -1.0875329207829E-05
(PID.TID 0000.0001) %MON dynstat_eta_mean             =   7.4532032992238E-21
(PID.TID 0000.0001) %MON dynstat_eta_sd               =   1.2154484064155E-05
(PID.TID 0000.0001) %MON dynstat_eta_del2             =   3.0864740950360E-08
(PID.TID 0000.0001) %MON dynstat_uvel_max             =   2.1774785543049E-05
(PID.TID 0000.0001) %MON dynstat_uvel_min             =  -1.4445846558415E-04
(PID.TID 0000.0001) %MON dynstat_uvel_mean            =  -1.3151454996688E-08
(PID.TID 0000.0001) %MON dynstat_uvel_sd              =   9.3542629835850E-06
(PID.TID 0000.0001) %MON dynstat_uvel_del2            =   1.9753409784521E-08
(PID.TID 0000.0001) %MON dynstat_vvel_max             =   9.3686280201265E-05
(PID.TID 0000.0001) %MON dynstat_vvel_min             =  -1.4556228450302E-05
(PID.TID 0000.0001) %MON dynstat_vvel_mean            =  -1.8697907316033E-07
(PID.TID 0000.0001) %MON dynstat_vvel_sd              =   5.2904385123260E-06
(PID.TID 0000.0001) %MON dynstat_vvel_del2            =   1.3690995073277E-08
(PID.TID 0000.0001) %MON dynstat_wvel_max             =   7.1768492569539E-07
(PID.TID 0000.0001) %MON dynstat_wvel_min             =  -6.8684140628211E-07
(PID.TID 0000.0001) %MON dynstat_wvel_mean            =  -1.1640346568737E-10
(PID.TID 0000.0001) %MON dynstat_wvel_sd              =   2.4846328101252E-08
(PID.TID 0000.0001) %MON dynstat_wvel_del2            =   1.6565375775851E-10
(PID.TID 0000.0001) %MON dynstat_theta_max            =  -1.9000000000000E+00
(PID.TID 0000.0001) %MON dynstat_theta_min            =  -1.9081535223100E+00
(PID.TID 0000.0001) %MON dynstat_theta_mean           =  -1.9000687581601E+00
(PID.TID 0000.0001) %MON dynstat_theta_sd             =   5.3101748851810E-04
(PID.TID 0000.0001) %MON dynstat_theta_del2           =   6.1808909798274E-07
(PID.TID 0000.0001) %MON dynstat_salt_max             =   3.4400000000000E+01
(PID.TID 0000.0001) %MON dynstat_salt_min             =   3.4396672759790E+01
(PID.TID 0000.0001) %MON dynstat_salt_mean            =   3.4399972076531E+01
(PID.TID 0000.0001) %MON dynstat_salt_sd              =   2.1615331824149E-04
(PID.TID 0000.0001) %MON dynstat_salt_del2            =   2.5133189050852E-07
(PID.TID 0000.0001) %MON advcfl_uvel_max              =   4.2982756674349E-05
(PID.TID 0000.0001) %MON advcfl_vvel_max              =   1.5168118079847E-05
(PID.TID 0000.0001) %MON advcfl_wvel_max              =   4.3061095541724E-05
(PID.TID 0000.0001) %MON advcfl_W_hf_max              =   5.0316626154254E-05
(PID.TID 0000.0001) %MON pe_b_mean                    =  -3.5979396943949E-08
(PID.TID 0000.0001) %MON ke_max                       =   1.2674013607475E-08
(PID.TID 0000.0001) %MON ke_mean                      =   5.6687284229075E-11
(PID.TID 0000.0001) %MON ke_vol                       =   3.4703745874271E+14
(PID.TID 0000.0001) %MON vort_r_min                   =  -1.5861960251211E-08
(PID.TID 0000.0001) %MON vort_r_max                   =   1.5376838415469E-08
(PID.TID 0000.0001) %MON vort_a_mean                  =  -1.3992981959779E-04
(PID.TID 0000.0001) %MON vort_a_sd                    =   1.7365060491030E-06
(PID.TID 0000.0001) %MON vort_p_mean                  =  -1.4746660582887E-04
(PID.TID 0000.0001) %MON vort_p_sd                    =   7.7972247741136E-05
(PID.TID 0000.0001) %MON surfExpan_theta_mean         =  -1.0211907292084E-12
(PID.TID 0000.0001) %MON surfExpan_salt_mean          =  -4.1503582572581E-13
(PID.TID 0000.0001) // =======================================================
(PID.TID 0000.0001) // End MONITOR dynamic field statistics
(PID.TID 0000.0001) // =======================================================
 cg2d: Sum(rhs),rhsMax =   7.10542735760100E-15  7.90001846715682E-05
(PID.TID 0000.0001)      cg2d_init_res =   7.23563758107912E-01
(PID.TID 0000.0001)      cg2d_iters(min,last) =      -1     205
(PID.TID 0000.0001)      cg2d_last_res =   8.96388061234503E-14
(PID.TID 0000.0001) // =======================================================
(PID.TID 0000.0001) // Begin MONITOR dynamic field statistics
(PID.TID 0000.0001) // =======================================================
(PID.TID 0000.0001) %MON time_tsnumber                =                    13
(PID.TID 0000.0001) %MON time_secondsf                =   2.3400000000000E+04
(PID.TID 0000.0001) %MON dynstat_eta_max              =   2.4682162467295E-05
(PID.TID 0000.0001) %MON dynstat_eta_min              =  -1.1377370957175E-05
(PID.TID 0000.0001) %MON dynstat_eta_mean             =   1.3841663269987E-20
(PID.TID 0000.0001) %MON dynstat_eta_sd               =   1.2885360967704E-05
(PID.TID 0000.0001) %MON dynstat_eta_del2             =   3.3427128841826E-08
(PID.TID 0000.0001) %MON dynstat_uvel_max             =   2.5066515728748E-05
(PID.TID 0000.0001) %MON dynstat_uvel_min             =  -1.6565758207150E-04
(PID.TID 0000.0001) %MON dynstat_uvel_mean            =  -1.1493395196711E-08
(PID.TID 0000.0001) %MON dynstat_uvel_sd              =   1.0744788467255E-05
(PID.TID 0000.0001) %MON dynstat_uvel_del2            =   2.2645742467555E-08
(PID.TID 0000.0001) %MON dynstat_vvel_max             =   9.3555756186029E-05
(PID.TID 0000.0001) %MON dynstat_vvel_min             =  -1.4758286598423E-05
(PID.TID 0000.0001) %MON dynstat_vvel_mean            =  -1.4422008633645E-07
(PID.TID 0000.0001) %MON dynstat_vvel_sd              =   5.2316326303305E-06
(PID.TID 0000.0001) %MON dynstat_vvel_del2            =   1.3663742219733E-08
(PID.TID 0000.0001) %MON dynstat_wvel_max             =   8.1162621856355E-07
(PID.TID 0000.0001) %MON dynstat_wvel_min             =  -7.7362420698410E-07
(PID.TID 0000.0001) %MON dynstat_wvel_mean            =  -8.9660926679022E-11
(PID.TID 0000.0001) %MON dynstat_wvel_sd              =   2.7104718306716E-08
(PID.TID 0000.0001) %MON dynstat_wvel_del2            =   1.6873981311492E-10
(PID.TID 0000.0001) %MON dynstat_theta_max            =  -1.9000000000000E+00
(PID.TID 0000.0001) %MON dynstat_theta_min            =  -1.9088268611212E+00
(PID.TID 0000.0001) %MON dynstat_theta_mean           =  -1.9000744452666E+00
(PID.TID 0000.0001) %MON dynstat_theta_sd             =   5.7482306626246E-04
(PID.TID 0000.0001) %MON dynstat_theta_del2           =   6.6823353271917E-07
(PID.TID 0000.0001) %MON dynstat_salt_max             =   3.4400000000000E+01
(PID.TID 0000.0001) %MON dynstat_salt_min             =   3.4396397999870E+01
(PID.TID 0000.0001) %MON dynstat_salt_mean            =   3.4399969767099E+01
(PID.TID 0000.0001) %MON dynstat_salt_sd              =   2.3398346830090E-04
(PID.TID 0000.0001) %MON dynstat_salt_del2            =   2.7172018647031E-07
(PID.TID 0000.0001) %MON advcfl_uvel_max              =   4.9290427616318E-05
(PID.TID 0000.0001) %MON advcfl_vvel_max              =   1.5146985810841E-05
(PID.TID 0000.0001) %MON advcfl_wvel_max              =   4.8697573113813E-05
(PID.TID 0000.0001) %MON advcfl_W_hf_max              =   5.6111792969808E-05
(PID.TID 0000.0001) %MON pe_b_mean                    =  -3.8144408372703E-08
(PID.TID 0000.0001) %MON ke_max                       =   1.5906897405423E-08
(PID.TID 0000.0001) %MON ke_mean                      =   7.0063871418647E-11
(PID.TID 0000.0001) %MON ke_vol                       =   3.4703745874271E+14
(PID.TID 0000.0001) %MON vort_r_min                   =  -1.5839861319147E-08
(PID.TID 0000.0001) %MON vort_r_max                   =   1.5304934138525E-08
(PID.TID 0000.0001) %MON vort_a_mean                  =  -1.3992981960477E-04
(PID.TID 0000.0001) %MON vort_a_sd                    =   1.7365058829891E-06
(PID.TID 0000.0001) %MON vort_p_mean                  =  -1.4746660583622E-04
(PID.TID 0000.0001) %MON vort_p_sd                    =   7.7972041831691E-05
(PID.TID 0000.0001) %MON surfExpan_theta_mean         =  -8.4775741230367E-13
(PID.TID 0000.0001) %MON surfExpan_salt_mean          =  -3.4432732075208E-13
(PID.TID 0000.0001) // =======================================================
(PID.TID 0000.0001) // End MONITOR dynamic field statistics
(PID.TID 0000.0001) // =======================================================
 cg2d: Sum(rhs),rhsMax =  -2.84217094304040E-14  8.46073703768117E-05
(PID.TID 0000.0001)      cg2d_init_res =   6.71701226971513E-01
(PID.TID 0000.0001)      cg2d_iters(min,last) =      -1     206
(PID.TID 0000.0001)      cg2d_last_res =   9.79084582586974E-14
(PID.TID 0000.0001) // =======================================================
(PID.TID 0000.0001) // Begin MONITOR dynamic field statistics
(PID.TID 0000.0001) // =======================================================
(PID.TID 0000.0001) %MON time_tsnumber                =                    14
(PID.TID 0000.0001) %MON time_secondsf                =   2.5200000000000E+04
(PID.TID 0000.0001) %MON dynstat_eta_max              =   2.5990381238872E-05
(PID.TID 0000.0001) %MON dynstat_eta_min              =  -1.1730058235781E-05
(PID.TID 0000.0001) %MON dynstat_eta_mean             =   9.5826899561448E-21
(PID.TID 0000.0001) %MON dynstat_eta_sd               =   1.3477318858681E-05
(PID.TID 0000.0001) %MON dynstat_eta_del2             =   3.5972834117546E-08
(PID.TID 0000.0001) %MON dynstat_uvel_max             =   2.8225637446444E-05
(PID.TID 0000.0001) %MON dynstat_uvel_min             =  -1.8593671055366E-04
(PID.TID 0000.0001) %MON dynstat_uvel_mean            =  -8.4963487873016E-09
(PID.TID 0000.0001) %MON dynstat_uvel_sd              =   1.2076306603985E-05
(PID.TID 0000.0001) %MON dynstat_uvel_del2            =   2.5435625355319E-08
(PID.TID 0000.0001) %MON dynstat_vvel_max             =   9.1225140418892E-05
(PID.TID 0000.0001) %MON dynstat_vvel_min             =  -1.4640435219829E-05
(PID.TID 0000.0001) %MON dynstat_vvel_mean            =  -1.0915266180242E-07
(PID.TID 0000.0001) %MON dynstat_vvel_sd              =   5.0329571998609E-06
(PID.TID 0000.0001) %MON dynstat_vvel_del2            =   1.3331872122122E-08
(PID.TID 0000.0001) %MON dynstat_wvel_max             =   9.0022502471753E-07
(PID.TID 0000.0001) %MON dynstat_wvel_min             =  -8.5475361905701E-07
(PID.TID 0000.0001) %MON dynstat_wvel_mean            =  -6.7974235772094E-11
(PID.TID 0000.0001) %MON dynstat_wvel_sd              =   2.9196562127457E-08
(PID.TID 0000.0001) %MON dynstat_wvel_del2            =   1.6921814067550E-10
(PID.TID 0000.0001) %MON dynstat_theta_max            =  -1.9000000000000E+00
(PID.TID 0000.0001) %MON dynstat_theta_min            =  -1.9094992774996E+00
(PID.TID 0000.0001) %MON dynstat_theta_mean           =  -1.9000801259024E+00
(PID.TID 0000.0001) %MON dynstat_theta_sd             =   6.1856125849458E-04
(PID.TID 0000.0001) %MON dynstat_theta_del2           =   7.1817526643828E-07
(PID.TID 0000.0001) %MON dynstat_salt_max             =   3.4400000000000E+01
(PID.TID 0000.0001) %MON dynstat_salt_min             =   3.4396123618188E+01
(PID.TID 0000.0001) %MON dynstat_salt_mean            =   3.4399967460320E+01
(PID.TID 0000.0001) %MON dynstat_salt_sd              =   2.5178601888372E-04
(PID.TID 0000.0001) %MON dynstat_salt_del2            =   2.9202578399082E-07
(PID.TID 0000.0001) %MON advcfl_uvel_max              =   5.5324361602755E-05
(PID.TID 0000.0001) %MON advcfl_vvel_max              =   1.4769651423365E-05
(PID.TID 0000.0001) %MON advcfl_wvel_max              =   5.4013501483052E-05
(PID.TID 0000.0001) %MON advcfl_W_hf_max              =   6.1445595785360E-05
(PID.TID 0000.0001) %MON pe_b_mean                    =  -3.9887351941971E-08
(PID.TID 0000.0001) %MON ke_max                       =   1.9305149407631E-08
(PID.TID 0000.0001) %MON ke_mean                      =   8.3936390556574E-11
(PID.TID 0000.0001) %MON ke_vol                       =   3.4703745874271E+14
(PID.TID 0000.0001) %MON vort_r_min                   =  -1.5445266351989E-08
(PID.TID 0000.0001) %MON vort_r_max                   =   1.4869091605805E-08
(PID.TID 0000.0001) %MON vort_a_mean                  =  -1.3992981961561E-04
(PID.TID 0000.0001) %MON vort_a_sd                    =   1.7365057091918E-06
(PID.TID 0000.0001) %MON vort_p_mean                  =  -1.4746660584764E-04
(PID.TID 0000.0001) %MON vort_p_sd                    =   7.7971844500655E-05
(PID.TID 0000.0001) %MON surfExpan_theta_mean         =  -6.8762945811486E-13
(PID.TID 0000.0001) %MON surfExpan_salt_mean          =  -2.7905228301792E-13
(PID.TID 0000.0001) // =======================================================
(PID.TID 0000.0001) // End MONITOR dynamic field statistics
(PID.TID 0000.0001) // =======================================================
 cg2d: Sum(rhs),rhsMax =   5.68434188608080E-14  9.01859496601505E-05
(PID.TID 0000.0001)      cg2d_init_res =   6.26445114491766E-01
(PID.TID 0000.0001)      cg2d_iters(min,last) =      -1     206
(PID.TID 0000.0001)      cg2d_last_res =   9.74871270839843E-14
(PID.TID 0000.0001) // =======================================================
(PID.TID 0000.0001) // Begin MONITOR dynamic field statistics
(PID.TID 0000.0001) // =======================================================
(PID.TID 0000.0001) %MON time_tsnumber                =                    15
(PID.TID 0000.0001) %MON time_secondsf                =   2.7000000000000E+04
(PID.TID 0000.0001) %MON dynstat_eta_max              =   2.7010996114900E-05
(PID.TID 0000.0001) %MON dynstat_eta_min              =  -1.1978889967774E-05
(PID.TID 0000.0001) %MON dynstat_eta_mean             =  -1.3841663269987E-20
(PID.TID 0000.0001) %MON dynstat_eta_sd               =   1.3973514637954E-05
(PID.TID 0000.0001) %MON dynstat_eta_del2             =   3.8502146834963E-08
(PID.TID 0000.0001) %MON dynstat_uvel_max             =   3.1174169688593E-05
(PID.TID 0000.0001) %MON dynstat_uvel_min             =  -2.0482933893777E-04
(PID.TID 0000.0001) %MON dynstat_uvel_mean            =  -4.5490025503173E-09
(PID.TID 0000.0001) %MON dynstat_uvel_sd              =   1.3316396566834E-05
(PID.TID 0000.0001) %MON dynstat_uvel_del2            =   2.8065352163094E-08
(PID.TID 0000.0001) %MON dynstat_vvel_max             =   8.7033914789363E-05
(PID.TID 0000.0001) %MON dynstat_vvel_min             =  -1.4273286694574E-05
(PID.TID 0000.0001) %MON dynstat_vvel_mean            =  -8.4801401617869E-08
(PID.TID 0000.0001) %MON dynstat_vvel_sd              =   4.7151832985881E-06
(PID.TID 0000.0001) %MON dynstat_vvel_del2            =   1.2745384728774E-08
(PID.TID 0000.0001) %MON dynstat_wvel_max             =   9.8185333300758E-07
(PID.TID 0000.0001) %MON dynstat_wvel_min             =  -9.2874958325914E-07
(PID.TID 0000.0001) %MON dynstat_wvel_mean            =  -5.3206721923247E-11
(PID.TID 0000.0001) %MON dynstat_wvel_sd              =   3.1113394789565E-08
(PID.TID 0000.0001) %MON dynstat_wvel_del2            =   1.6774457113169E-10
(PID.TID 0000.0001) %MON dynstat_theta_max            =  -1.9000000000000E+00
(PID.TID 0000.0001) %MON dynstat_theta_min            =  -1.9101707740371E+00
(PID.TID 0000.0001) %MON dynstat_theta_mean           =  -1.9000858000787E+00
(PID.TID 0000.0001) %MON dynstat_theta_sd             =   6.6223220763228E-04
(PID.TID 0000.0001) %MON dynstat_theta_del2           =   7.6791526398345E-07
(PID.TID 0000.0001) %MON dynstat_salt_max             =   3.4400000000000E+01
(PID.TID 0000.0001) %MON dynstat_salt_min             =   3.4395849613680E+01
(PID.TID 0000.0001) %MON dynstat_salt_mean            =   3.4399965156190E+01
(PID.TID 0000.0001) %MON dynstat_salt_sd              =   2.6956102847885E-04
(PID.TID 0000.0001) %MON dynstat_salt_del2            =   3.1224907650439E-07
(PID.TID 0000.0001) %MON advcfl_uvel_max              =   6.0945750736921E-05
(PID.TID 0000.0001) %MON advcfl_vvel_max              =   1.4091078156165E-05
(PID.TID 0000.0001) %MON advcfl_wvel_max              =   5.8911199980455E-05
(PID.TID 0000.0001) %MON advcfl_W_hf_max              =   6.6244005514895E-05
(PID.TID 0000.0001) %MON pe_b_mean                    =  -4.1335635486198E-08
(PID.TID 0000.0001) %MON ke_max                       =   2.2746604348832E-08
(PID.TID 0000.0001) %MON ke_mean                      =   9.7828700626343E-11
(PID.TID 0000.0001) %MON ke_vol                       =   3.4703745874271E+14
(PID.TID 0000.0001) %MON vort_r_min                   =  -1.4735652797084E-08
(PID.TID 0000.0001) %MON vort_r_max                   =   1.4128206705861E-08
(PID.TID 0000.0001) %MON vort_a_mean                  =  -1.3992981962875E-04
(PID.TID 0000.0001) %MON vort_a_sd                    =   1.7365055367834E-06
(PID.TID 0000.0001) %MON vort_p_mean                  =  -1.4746660586150E-04
(PID.TID 0000.0001) %MON vort_p_sd                    =   7.7971660475072E-05
(PID.TID 0000.0001) %MON surfExpan_theta_mean         =  -5.7271660912922E-13
(PID.TID 0000.0001) %MON surfExpan_salt_mean          =  -2.3220776609378E-13
(PID.TID 0000.0001) // =======================================================
(PID.TID 0000.0001) // End MONITOR dynamic field statistics
(PID.TID 0000.0001) // =======================================================
 cg2d: Sum(rhs),rhsMax =   4.26325641456060E-14  9.57473156251520E-05
(PID.TID 0000.0001)      cg2d_init_res =   5.86542290944847E-01
(PID.TID 0000.0001)      cg2d_iters(min,last) =      -1     205
(PID.TID 0000.0001)      cg2d_last_res =   9.56661086396716E-14
(PID.TID 0000.0001) // =======================================================
(PID.TID 0000.0001) // Begin MONITOR dynamic field statistics
(PID.TID 0000.0001) // =======================================================
(PID.TID 0000.0001) %MON time_tsnumber                =                    16
(PID.TID 0000.0001) %MON time_secondsf                =   2.8800000000000E+04
(PID.TID 0000.0001) %MON dynstat_eta_max              =   2.7819869373252E-05
(PID.TID 0000.0001) %MON dynstat_eta_min              =  -1.2277664121554E-05
(PID.TID 0000.0001) %MON dynstat_eta_mean             =   6.3884599707632E-21
(PID.TID 0000.0001) %MON dynstat_eta_sd               =   1.4421512514399E-05
(PID.TID 0000.0001) %MON dynstat_eta_del2             =   4.1015441871245E-08
(PID.TID 0000.0001) %MON dynstat_uvel_max             =   3.3851573278246E-05
(PID.TID 0000.0001) %MON dynstat_uvel_min             =  -2.2198660431688E-04
(PID.TID 0000.0001) %MON dynstat_uvel_mean            =  -8.7024348407537E-11
(PID.TID 0000.0001) %MON dynstat_uvel_sd              =   1.4440167628047E-05
(PID.TID 0000.0001) %MON dynstat_uvel_del2            =   3.0491983523994E-08
(PID.TID 0000.0001) %MON dynstat_vvel_max             =   8.1421835068951E-05
(PID.TID 0000.0001) %MON dynstat_vvel_min             =  -1.3729358788817E-05
(PID.TID 0000.0001) %MON dynstat_vvel_mean            =  -7.2468685578557E-08
(PID.TID 0000.0001) %MON dynstat_vvel_sd              =   4.3061038990375E-06
(PID.TID 0000.0001) %MON dynstat_vvel_del2            =   1.1966696240172E-08
(PID.TID 0000.0001) %MON dynstat_wvel_max             =   1.0554475552456E-06
(PID.TID 0000.0001) %MON dynstat_wvel_min             =  -9.9468794278741E-07
(PID.TID 0000.0001) %MON dynstat_wvel_mean            =  -4.6118467287725E-11
(PID.TID 0000.0001) %MON dynstat_wvel_sd              =   3.2851786762442E-08
(PID.TID 0000.0001) %MON dynstat_wvel_del2            =   1.6507388991872E-10
(PID.TID 0000.0001) %MON dynstat_theta_max            =  -1.9000000000000E+00
(PID.TID 0000.0001) %MON dynstat_theta_min            =  -1.9108413531669E+00
(PID.TID 0000.0001) %MON dynstat_theta_mean           =  -1.9000914678065E+00
(PID.TID 0000.0001) %MON dynstat_theta_sd             =   7.0583605527009E-04
(PID.TID 0000.0001) %MON dynstat_theta_del2           =   8.1745448354291E-07
(PID.TID 0000.0001) %MON dynstat_salt_max             =   3.4400000000000E+01
(PID.TID 0000.0001) %MON dynstat_salt_min             =   3.4395575985346E+01
(PID.TID 0000.0001) %MON dynstat_salt_mean            =   3.4399962854703E+01
(PID.TID 0000.0001) %MON dynstat_salt_sd              =   2.8730855523754E-04
(PID.TID 0000.0001) %MON dynstat_salt_del2            =   3.3239045491774E-07
(PID.TID 0000.0001) %MON advcfl_uvel_max              =   6.6050792937149E-05
(PID.TID 0000.0001) %MON advcfl_vvel_max              =   1.3182463920550E-05
(PID.TID 0000.0001) %MON advcfl_wvel_max              =   6.3326853314739E-05
(PID.TID 0000.0001) %MON advcfl_W_hf_max              =   7.0474081729699E-05
(PID.TID 0000.0001) %MON pe_b_mean                    =  -4.2632242040654E-08
(PID.TID 0000.0001) %MON ke_max                       =   2.6112221750816E-08
(PID.TID 0000.0001) %MON ke_mean                      =   1.1128433501731E-10
(PID.TID 0000.0001) %MON ke_vol                       =   3.4703745874271E+14
(PID.TID 0000.0001) %MON vort_r_min                   =  -1.3785475404401E-08
(PID.TID 0000.0001) %MON vort_r_max                   =   1.3157310422837E-08
(PID.TID 0000.0001) %MON vort_a_mean                  =  -1.3992981964245E-04
(PID.TID 0000.0001) %MON vort_a_sd                    =   1.7365053754177E-06
(PID.TID 0000.0001) %MON vort_p_mean                  =  -1.4746660587593E-04
(PID.TID 0000.0001) %MON vort_p_sd                    =   7.7971493404962E-05
(PID.TID 0000.0001) %MON surfExpan_theta_mean         =  -5.2727526199444E-13
(PID.TID 0000.0001) %MON surfExpan_salt_mean          =  -2.1367217712680E-13
(PID.TID 0000.0001) // =======================================================
(PID.TID 0000.0001) // End MONITOR dynamic field statistics
(PID.TID 0000.0001) // =======================================================
 cg2d: Sum(rhs),rhsMax =  -1.98951966012828E-13  1.01710177037572E-04
(PID.TID 0000.0001)      cg2d_init_res =   5.48836391304203E-01
(PID.TID 0000.0001)      cg2d_iters(min,last) =      -1     204
(PID.TID 0000.0001)      cg2d_last_res =   9.76735757356608E-14
(PID.TID 0000.0001) // =======================================================
(PID.TID 0000.0001) // Begin MONITOR dynamic field statistics
(PID.TID 0000.0001) // =======================================================
(PID.TID 0000.0001) %MON time_tsnumber                =                    17
(PID.TID 0000.0001) %MON time_secondsf                =   3.0600000000000E+04
(PID.TID 0000.0001) %MON dynstat_eta_max              =   2.8503023130584E-05
(PID.TID 0000.0001) %MON dynstat_eta_min              =  -1.2960387133285E-05
(PID.TID 0000.0001) %MON dynstat_eta_mean             =  -1.4906406598448E-20
(PID.TID 0000.0001) %MON dynstat_eta_sd               =   1.4866965325836E-05
(PID.TID 0000.0001) %MON dynstat_eta_del2             =   4.3513133920338E-08
(PID.TID 0000.0001) %MON dynstat_uvel_max             =   3.6217777585373E-05
(PID.TID 0000.0001) %MON dynstat_uvel_min             =  -2.3719092153945E-04
(PID.TID 0000.0001) %MON dynstat_uvel_mean            =   4.4342628818797E-09
(PID.TID 0000.0001) %MON dynstat_uvel_sd              =   1.5431520765185E-05
(PID.TID 0000.0001) %MON dynstat_uvel_del2            =   3.2689039581315E-08
(PID.TID 0000.0001) %MON dynstat_vvel_max             =   7.4893819717059E-05
(PID.TID 0000.0001) %MON dynstat_vvel_min             =  -1.3034160846206E-05
(PID.TID 0000.0001) %MON dynstat_vvel_mean            =  -7.1873630536971E-08
(PID.TID 0000.0001) %MON dynstat_vvel_sd              =   3.8384467922245E-06
(PID.TID 0000.0001) %MON dynstat_vvel_del2            =   1.1065648713909E-08
(PID.TID 0000.0001) %MON dynstat_wvel_max             =   1.1205368177232E-06
(PID.TID 0000.0001) %MON dynstat_wvel_min             =  -1.0657978925390E-06
(PID.TID 0000.0001) %MON dynstat_wvel_mean            =  -4.6471713107686E-11
(PID.TID 0000.0001) %MON dynstat_wvel_sd              =   3.4412990624028E-08
(PID.TID 0000.0001) %MON dynstat_wvel_del2            =   1.6197360217155E-10
(PID.TID 0000.0001) %MON dynstat_theta_max            =  -1.9000000000000E+00
(PID.TID 0000.0001) %MON dynstat_theta_min            =  -1.9115110171291E+00
(PID.TID 0000.0001) %MON dynstat_theta_mean           =  -1.9000971290969E+00
(PID.TID 0000.0001) %MON dynstat_theta_sd             =   7.4937294232180E-04
(PID.TID 0000.0001) %MON dynstat_theta_del2           =   8.6679387898747E-07
(PID.TID 0000.0001) %MON dynstat_salt_max             =   3.4400000000000E+01
(PID.TID 0000.0001) %MON dynstat_salt_min             =   3.4395302732266E+01
(PID.TID 0000.0001) %MON dynstat_salt_mean            =   3.4399960555856E+01
(PID.TID 0000.0001) %MON dynstat_salt_sd              =   3.0502865703216E-04
(PID.TID 0000.0001) %MON dynstat_salt_del2            =   3.5245030851671E-07
(PID.TID 0000.0001) %MON advcfl_uvel_max              =   7.0574747036583E-05
(PID.TID 0000.0001) %MON advcfl_vvel_max              =   1.2125556682138E-05
(PID.TID 0000.0001) %MON advcfl_wvel_max              =   6.7232209063393E-05
(PID.TID 0000.0001) %MON advcfl_W_hf_max              =   7.4142976491221E-05
(PID.TID 0000.0001) %MON pe_b_mean                    =  -4.3916824276249E-08
(PID.TID 0000.0001) %MON ke_max                       =   2.9298607402998E-08
(PID.TID 0000.0001) %MON ke_mean                      =   1.2390925231447E-10
(PID.TID 0000.0001) %MON ke_vol                       =   3.4703745874271E+14
(PID.TID 0000.0001) %MON vort_r_min                   =  -1.2680221574187E-08
(PID.TID 0000.0001) %MON vort_r_max                   =   1.2050617003003E-08
(PID.TID 0000.0001) %MON vort_a_mean                  =  -1.3992981965489E-04
(PID.TID 0000.0001) %MON vort_a_sd                    =   1.7365052351885E-06
(PID.TID 0000.0001) %MON vort_p_mean                  =  -1.4746660588904E-04
(PID.TID 0000.0001) %MON vort_p_sd                    =   7.7971345685246E-05
(PID.TID 0000.0001) %MON surfExpan_theta_mean         =  -5.6517801892919E-13
(PID.TID 0000.0001) %MON surfExpan_salt_mean          =  -2.2909343270515E-13
(PID.TID 0000.0001) // =======================================================
(PID.TID 0000.0001) // End MONITOR dynamic field statistics
(PID.TID 0000.0001) // =======================================================
 cg2d: Sum(rhs),rhsMax =  -1.49213974509621E-13  1.07811905066091E-04
(PID.TID 0000.0001)      cg2d_init_res =   5.14648590974625E-01
(PID.TID 0000.0001)      cg2d_iters(min,last) =      -1     204
(PID.TID 0000.0001)      cg2d_last_res =   8.63946910238519E-14
(PID.TID 0000.0001) // =======================================================
(PID.TID 0000.0001) // Begin MONITOR dynamic field statistics
(PID.TID 0000.0001) // =======================================================
(PID.TID 0000.0001) %MON time_tsnumber                =                    18
(PID.TID 0000.0001) %MON time_secondsf                =   3.2400000000000E+04
(PID.TID 0000.0001) %MON dynstat_eta_max              =   2.9146800040321E-05
(PID.TID 0000.0001) %MON dynstat_eta_min              =  -1.3562212693030E-05
(PID.TID 0000.0001) %MON dynstat_eta_mean             =  -1.1712176613066E-20
(PID.TID 0000.0001) %MON dynstat_eta_sd               =   1.5348963459409E-05
(PID.TID 0000.0001) %MON dynstat_eta_del2             =   4.5995643661261E-08
(PID.TID 0000.0001) %MON dynstat_uvel_max             =   3.8254714456114E-05
(PID.TID 0000.0001) %MON dynstat_uvel_min             =  -2.5036417203075E-04
(PID.TID 0000.0001) %MON dynstat_uvel_mean            =   8.5876296570186E-09
(PID.TID 0000.0001) %MON dynstat_uvel_sd              =   1.6283772444192E-05
(PID.TID 0000.0001) %MON dynstat_uvel_del2            =   3.4646975396843E-08
(PID.TID 0000.0001) %MON dynstat_vvel_max             =   6.7982785255477E-05
(PID.TID 0000.0001) %MON dynstat_vvel_min             =  -1.2252640492762E-05
(PID.TID 0000.0001) %MON dynstat_vvel_mean            =  -8.1475897717495E-08
(PID.TID 0000.0001) %MON dynstat_vvel_sd              =   3.3475526485456E-06
(PID.TID 0000.0001) %MON dynstat_vvel_del2            =   1.0114356951247E-08
(PID.TID 0000.0001) %MON dynstat_wvel_max             =   1.1810561402216E-06
(PID.TID 0000.0001) %MON dynstat_wvel_min             =  -1.1320154886031E-06
(PID.TID 0000.0001) %MON dynstat_wvel_mean            =  -5.3245010187805E-11
(PID.TID 0000.0001) %MON dynstat_wvel_sd              =   3.5803203526171E-08
(PID.TID 0000.0001) %MON dynstat_wvel_del2            =   1.5913278279908E-10
(PID.TID 0000.0001) %MON dynstat_theta_max            =  -1.9000000000000E+00
(PID.TID 0000.0001) %MON dynstat_theta_min            =  -1.9121797679525E+00
(PID.TID 0000.0001) %MON dynstat_theta_mean           =  -1.9001027839609E+00
(PID.TID 0000.0001) %MON dynstat_theta_sd             =   7.9284300918458E-04
(PID.TID 0000.0001) %MON dynstat_theta_del2           =   9.1593440305297E-07
(PID.TID 0000.0001) %MON dynstat_salt_max             =   3.4400000000000E+01
(PID.TID 0000.0001) %MON dynstat_salt_min             =   3.4395029853605E+01
(PID.TID 0000.0001) %MON dynstat_salt_mean            =   3.4399958259644E+01
(PID.TID 0000.0001) %MON dynstat_salt_sd              =   3.2272139152259E-04
(PID.TID 0000.0001) %MON dynstat_salt_del2            =   3.7242902623279E-07
(PID.TID 0000.0001) %MON advcfl_uvel_max              =   7.4494369318240E-05
(PID.TID 0000.0001) %MON advcfl_vvel_max              =   1.1006637385290E-05
(PID.TID 0000.0001) %MON advcfl_wvel_max              =   7.0863368413297E-05
(PID.TID 0000.0001) %MON advcfl_W_hf_max              =   7.7294456159057E-05
(PID.TID 0000.0001) %MON pe_b_mean                    =  -4.5310830816565E-08
(PID.TID 0000.0001) %MON ke_max                       =   3.2228445803314E-08
(PID.TID 0000.0001) %MON ke_mean                      =   1.3540814258548E-10
(PID.TID 0000.0001) %MON ke_vol                       =   3.4703745874271E+14
(PID.TID 0000.0001) %MON vort_r_min                   =  -1.1510119039548E-08
(PID.TID 0000.0001) %MON vort_r_max                   =   1.2115200169128E-08
(PID.TID 0000.0001) %MON vort_a_mean                  =  -1.3992981966449E-04
(PID.TID 0000.0001) %MON vort_a_sd                    =   1.7365051223750E-06
(PID.TID 0000.0001) %MON vort_p_mean                  =  -1.4746660589916E-04
(PID.TID 0000.0001) %MON vort_p_sd                    =   7.7971218365769E-05
(PID.TID 0000.0001) %MON surfExpan_theta_mean         =  -6.8911099419940E-13
(PID.TID 0000.0001) %MON surfExpan_salt_mean          =  -2.7956233816206E-13
(PID.TID 0000.0001) // =======================================================
(PID.TID 0000.0001) // End MONITOR dynamic field statistics
(PID.TID 0000.0001) // =======================================================
 cg2d: Sum(rhs),rhsMax =   1.27897692436818E-13  1.13820402395485E-04
(PID.TID 0000.0001)      cg2d_init_res =   4.84536915780416E-01
(PID.TID 0000.0001)      cg2d_iters(min,last) =      -1     203
(PID.TID 0000.0001)      cg2d_last_res =   8.99709916974128E-14
(PID.TID 0000.0001) // =======================================================
(PID.TID 0000.0001) // Begin MONITOR dynamic field statistics
(PID.TID 0000.0001) // =======================================================
(PID.TID 0000.0001) %MON time_tsnumber                =                    19
(PID.TID 0000.0001) %MON time_secondsf                =   3.4200000000000E+04
(PID.TID 0000.0001) %MON dynstat_eta_max              =   2.9829909217858E-05
(PID.TID 0000.0001) %MON dynstat_eta_min              =  -1.4098831828021E-05
(PID.TID 0000.0001) %MON dynstat_eta_mean             =  -3.1942299853816E-21
(PID.TID 0000.0001) %MON dynstat_eta_sd               =   1.5897246262555E-05
(PID.TID 0000.0001) %MON dynstat_eta_del2             =   4.8463374686484E-08
(PID.TID 0000.0001) %MON dynstat_uvel_max             =   3.9966351763102E-05
(PID.TID 0000.0001) %MON dynstat_uvel_min             =  -2.6156492441296E-04
(PID.TID 0000.0001) %MON dynstat_uvel_mean            =   1.2025330821190E-08
(PID.TID 0000.0001) %MON dynstat_uvel_sd              =   1.6999630434115E-05
(PID.TID 0000.0001) %MON dynstat_uvel_del2            =   3.6372493424448E-08
(PID.TID 0000.0001) %MON dynstat_vvel_max             =   6.1330687052025E-05
(PID.TID 0000.0001) %MON dynstat_vvel_min             =  -1.1449577266967E-05
(PID.TID 0000.0001) %MON dynstat_vvel_mean            =  -9.8898569771731E-08
(PID.TID 0000.0001) %MON dynstat_vvel_sd              =   2.8689249877056E-06
(PID.TID 0000.0001) %MON dynstat_vvel_del2            =   9.1821801399935E-09
(PID.TID 0000.0001) %MON dynstat_wvel_max             =   1.2359296948974E-06
(PID.TID 0000.0001) %MON dynstat_wvel_min             =  -1.1904305640059E-06
(PID.TID 0000.0001) %MON dynstat_wvel_mean            =  -6.4902060270956E-11
(PID.TID 0000.0001) %MON dynstat_wvel_sd              =   3.7034288614315E-08
(PID.TID 0000.0001) %MON dynstat_wvel_del2            =   1.5708264633139E-10
(PID.TID 0000.0001) %MON dynstat_theta_max            =  -1.9000000000000E+00
(PID.TID 0000.0001) %MON dynstat_theta_min            =  -1.9128476074521E+00
(PID.TID 0000.0001) %MON dynstat_theta_mean           =  -1.9001084324094E+00
(PID.TID 0000.0001) %MON dynstat_theta_sd             =   8.3624639589832E-04
(PID.TID 0000.0001) %MON dynstat_theta_del2           =   9.6487701047163E-07
(PID.TID 0000.0001) %MON dynstat_salt_max             =   3.4400000000000E+01
(PID.TID 0000.0001) %MON dynstat_salt_min             =   3.4394757348615E+01
(PID.TID 0000.0001) %MON dynstat_salt_mean            =   3.4399955966062E+01
(PID.TID 0000.0001) %MON dynstat_salt_sd              =   3.4038681622172E-04
(PID.TID 0000.0001) %MON dynstat_salt_del2            =   3.9232699789657E-07
(PID.TID 0000.0001) %MON advcfl_uvel_max              =   7.7827086527077E-05
(PID.TID 0000.0001) %MON advcfl_vvel_max              =   9.9296407235379E-06
(PID.TID 0000.0001) %MON advcfl_wvel_max              =   7.4155781693841E-05
(PID.TID 0000.0001) %MON advcfl_W_hf_max              =   8.0003297003308E-05
(PID.TID 0000.0001) %MON pe_b_mean                    =  -4.6907695477858E-08
(PID.TID 0000.0001) %MON ke_max                       =   3.4857937582564E-08
(PID.TID 0000.0001) %MON ke_mean                      =   1.4561142960577E-10
(PID.TID 0000.0001) %MON ke_vol                       =   3.4703745874271E+14
(PID.TID 0000.0001) %MON vort_r_min                   =  -1.0363925017946E-08
(PID.TID 0000.0001) %MON vort_r_max                   =   1.2654677819276E-08
(PID.TID 0000.0001) %MON vort_a_mean                  =  -1.3992981966995E-04
(PID.TID 0000.0001) %MON vort_a_sd                    =   1.7365050428669E-06
(PID.TID 0000.0001) %MON vort_p_mean                  =  -1.4746660590492E-04
(PID.TID 0000.0001) %MON vort_p_sd                    =   7.7971111150512E-05
(PID.TID 0000.0001) %MON surfExpan_theta_mean         =  -8.9149396243532E-13
(PID.TID 0000.0001) %MON surfExpan_salt_mean          =  -3.6198765797654E-13
(PID.TID 0000.0001) // =======================================================
(PID.TID 0000.0001) // End MONITOR dynamic field statistics
(PID.TID 0000.0001) // =======================================================
 cg2d: Sum(rhs),rhsMax =   7.10542735760100E-15  1.19737628428963E-04
(PID.TID 0000.0001)      cg2d_init_res =   4.57819203847203E-01
(PID.TID 0000.0001)      cg2d_iters(min,last) =      -1     202
(PID.TID 0000.0001)      cg2d_last_res =   8.86547666246760E-14
(PID.TID 0000.0001) // =======================================================
(PID.TID 0000.0001) // Begin MONITOR dynamic field statistics
(PID.TID 0000.0001) // =======================================================
(PID.TID 0000.0001) %MON time_tsnumber                =                    20
(PID.TID 0000.0001) %MON time_secondsf                =   3.6000000000000E+04
(PID.TID 0000.0001) %MON dynstat_eta_max              =   3.0617696492959E-05
(PID.TID 0000.0001) %MON dynstat_eta_min              =  -1.4589202559864E-05
(PID.TID 0000.0001) %MON dynstat_eta_mean             =   2.2359609897671E-20
(PID.TID 0000.0001) %MON dynstat_eta_sd               =   1.6531100544493E-05
(PID.TID 0000.0001) %MON dynstat_eta_del2             =   5.0916700930710E-08
(PID.TID 0000.0001) %MON dynstat_uvel_max             =   4.1377213549431E-05
(PID.TID 0000.0001) %MON dynstat_uvel_min             =  -2.7097800989838E-04
(PID.TID 0000.0001) %MON dynstat_uvel_mean            =   1.4515283488828E-08
(PID.TID 0000.0001) %MON dynstat_uvel_sd              =   1.7590554092496E-05
(PID.TID 0000.0001) %MON dynstat_uvel_del2            =   3.7886822516381E-08
(PID.TID 0000.0001) %MON dynstat_vvel_max             =   5.5655260696368E-05
(PID.TID 0000.0001) %MON dynstat_vvel_min             =  -1.0685723499043E-05
(PID.TID 0000.0001) %MON dynstat_vvel_mean            =  -1.2136916745637E-07
(PID.TID 0000.0001) %MON dynstat_vvel_sd              =   2.4356786342981E-06
(PID.TID 0000.0001) %MON dynstat_vvel_del2            =   8.3310993015155E-09
(PID.TID 0000.0001) %MON dynstat_wvel_max             =   1.2838778457209E-06
(PID.TID 0000.0001) %MON dynstat_wvel_min             =  -1.2416262316349E-06
(PID.TID 0000.0001) %MON dynstat_wvel_mean            =  -7.9667122919070E-11
(PID.TID 0000.0001) %MON dynstat_wvel_sd              =   3.8124685890092E-08
(PID.TID 0000.0001) %MON dynstat_wvel_del2            =   1.5615069014271E-10
(PID.TID 0000.0001) %MON dynstat_theta_max            =  -1.9000000000000E+00
(PID.TID 0000.0001) %MON dynstat_theta_min            =  -1.9135145372446E+00
(PID.TID 0000.0001) %MON dynstat_theta_mean           =  -1.9001140744535E+00
(PID.TID 0000.0001) %MON dynstat_theta_sd             =   8.7958324227794E-04
(PID.TID 0000.0001) %MON dynstat_theta_del2           =   1.0136226605011E-06
(PID.TID 0000.0001) %MON dynstat_salt_max             =   3.4400000000000E+01
(PID.TID 0000.0001) %MON dynstat_salt_min             =   3.4394485216631E+01
(PID.TID 0000.0001) %MON dynstat_salt_mean            =   3.4399953675106E+01
(PID.TID 0000.0001) %MON dynstat_salt_sd              =   3.5802498854922E-04
(PID.TID 0000.0001) %MON dynstat_salt_del2            =   4.1214461525053E-07
(PID.TID 0000.0001) %MON advcfl_uvel_max              =   8.0627894090263E-05
(PID.TID 0000.0001) %MON advcfl_vvel_max              =   9.0107704585306E-06
(PID.TID 0000.0001) %MON advcfl_wvel_max              =   7.7032670743255E-05
(PID.TID 0000.0001) %MON advcfl_W_hf_max              =   8.2368029717359E-05
(PID.TID 0000.0001) %MON pe_b_mean                    =  -4.8768212420894E-08
(PID.TID 0000.0001) %MON ke_max                       =   3.7179920784390E-08
(PID.TID 0000.0001) %MON ke_mean                      =   1.5449131078859E-10
(PID.TID 0000.0001) %MON ke_vol                       =   3.4703745874271E+14
(PID.TID 0000.0001) %MON vort_r_min                   =  -9.3231975846228E-09
(PID.TID 0000.0001) %MON vort_r_max                   =   1.3244244677181E-08
(PID.TID 0000.0001) %MON vort_a_mean                  =  -1.3992981967046E-04
(PID.TID 0000.0001) %MON vort_a_sd                    =   1.7365049983055E-06
(PID.TID 0000.0001) %MON vort_p_mean                  =  -1.4746660590546E-04
(PID.TID 0000.0001) %MON vort_p_sd                    =   7.7971022480941E-05
(PID.TID 0000.0001) %MON surfExpan_theta_mean         =  -1.1566865054754E-12
(PID.TID 0000.0001) %MON surfExpan_salt_mean          =  -4.6999492360312E-13
(PID.TID 0000.0001) // =======================================================
(PID.TID 0000.0001) // End MONITOR dynamic field statistics
(PID.TID 0000.0001) // =======================================================
 Computing Diagnostic #    190  SHIfwFlx     Counter:      10   Parms: SM      L1      
 Computing Diagnostic #    191  SHIhtFlx     Counter:      10   Parms: SM      L1      
 Computing Diagnostic #    198  ICFfwFlx     Counter:      10   Parms: SM      MR      
 Computing Diagnostic #    199  ICFhtFlx     Counter:      10   Parms: SM      MR      
(PID.TID 0000.0001) %CHECKPOINT        20 ckptA
(PID.TID 0000.0001)   Seconds in section "ALL                    [THE_MODEL_MAIN]":
(PID.TID 0000.0001)           User time:   43.509999999999998
(PID.TID 0000.0001)         System time:  8.00000000000000017E-002
(PID.TID 0000.0001)     Wall clock time:   43.708059072494507
(PID.TID 0000.0001)          No. starts:           1
(PID.TID 0000.0001)           No. stops:           1
(PID.TID 0000.0001)   Seconds in section "INITIALISE_FIXED       [THE_MODEL_MAIN]":
(PID.TID 0000.0001)           User time:  0.25000000000000000
(PID.TID 0000.0001)         System time:  2.00000000000000004E-002
(PID.TID 0000.0001)     Wall clock time:  0.30062317848205566
(PID.TID 0000.0001)          No. starts:           1
(PID.TID 0000.0001)           No. stops:           1
(PID.TID 0000.0001)   Seconds in section "THE_MAIN_LOOP          [THE_MODEL_MAIN]":
(PID.TID 0000.0001)           User time:   43.259999999999998
(PID.TID 0000.0001)         System time:  5.99999999999999978E-002
(PID.TID 0000.0001)     Wall clock time:   43.407392978668213
(PID.TID 0000.0001)          No. starts:           1
(PID.TID 0000.0001)           No. stops:           1
(PID.TID 0000.0001)   Seconds in section "INITIALISE_VARIA    [THE_MAIN_LOOP]":
(PID.TID 0000.0001)           User time:  0.57000000000000006
(PID.TID 0000.0001)         System time:  2.00000000000000004E-002
(PID.TID 0000.0001)     Wall clock time:  0.58621597290039063
(PID.TID 0000.0001)          No. starts:           1
(PID.TID 0000.0001)           No. stops:           1
(PID.TID 0000.0001)   Seconds in section "MAIN LOOP           [THE_MAIN_LOOP]":
(PID.TID 0000.0001)           User time:   42.689999999999998
(PID.TID 0000.0001)         System time:  4.00000000000000008E-002
(PID.TID 0000.0001)     Wall clock time:   42.821145057678223
(PID.TID 0000.0001)          No. starts:           1
(PID.TID 0000.0001)           No. stops:           1
(PID.TID 0000.0001)   Seconds in section "MAIN_DO_LOOP        [THE_MAIN_LOOP]":
(PID.TID 0000.0001)           User time:   42.689999999999998
(PID.TID 0000.0001)         System time:  4.00000000000000008E-002
(PID.TID 0000.0001)     Wall clock time:   42.821125030517578
(PID.TID 0000.0001)          No. starts:           1
(PID.TID 0000.0001)           No. stops:           1
(PID.TID 0000.0001)   Seconds in section "FORWARD_STEP        [MAIN_DO_LOOP]":
(PID.TID 0000.0001)           User time:   42.689999999999984
(PID.TID 0000.0001)         System time:  3.99999999999999939E-002
(PID.TID 0000.0001)     Wall clock time:   42.820930719375610
(PID.TID 0000.0001)          No. starts:          20
(PID.TID 0000.0001)           No. stops:          20
(PID.TID 0000.0001)   Seconds in section "DO_STATEVARS_DIAGS  [FORWARD_STEP]":
(PID.TID 0000.0001)           User time:  1.99999999999960210E-002
(PID.TID 0000.0001)         System time:   0.0000000000000000
(PID.TID 0000.0001)     Wall clock time:  1.40123367309570313E-002
(PID.TID 0000.0001)          No. starts:          40
(PID.TID 0000.0001)           No. stops:          40
(PID.TID 0000.0001)   Seconds in section "LOAD_FIELDS_DRIVER  [FORWARD_STEP]":
(PID.TID 0000.0001)           User time:   0.0000000000000000
(PID.TID 0000.0001)         System time:   0.0000000000000000
(PID.TID 0000.0001)     Wall clock time:  5.61237335205078125E-004
(PID.TID 0000.0001)          No. starts:          20
(PID.TID 0000.0001)           No. stops:          20
(PID.TID 0000.0001)   Seconds in section "EXTERNAL_FLDS_LOAD [LOAD_FLDS_DRIVER]":
(PID.TID 0000.0001)           User time:   0.0000000000000000
(PID.TID 0000.0001)         System time:   0.0000000000000000
(PID.TID 0000.0001)     Wall clock time:  1.96933746337890625E-004
(PID.TID 0000.0001)          No. starts:          20
(PID.TID 0000.0001)           No. stops:          20
(PID.TID 0000.0001)   Seconds in section "DO_ATMOSPHERIC_PHYS [FORWARD_STEP]":
(PID.TID 0000.0001)           User time:   0.0000000000000000
(PID.TID 0000.0001)         System time:   0.0000000000000000
(PID.TID 0000.0001)     Wall clock time:  1.88589096069335938E-004
(PID.TID 0000.0001)          No. starts:          20
(PID.TID 0000.0001)           No. stops:          20
(PID.TID 0000.0001)   Seconds in section "DO_OCEANIC_PHYS     [FORWARD_STEP]":
(PID.TID 0000.0001)           User time:  0.98000000000001108
(PID.TID 0000.0001)         System time:   0.0000000000000000
(PID.TID 0000.0001)     Wall clock time:  0.98501753807067871
(PID.TID 0000.0001)          No. starts:          20
(PID.TID 0000.0001)           No. stops:          20
(PID.TID 0000.0001)   Seconds in section "SHELFICE_THERMODYNAMICS [DO_OCEANIC_PHYS]":
(PID.TID 0000.0001)           User time:  0.13999999999999346
(PID.TID 0000.0001)         System time:   0.0000000000000000
(PID.TID 0000.0001)     Wall clock time:  0.10374784469604492
(PID.TID 0000.0001)          No. starts:          20
(PID.TID 0000.0001)           No. stops:          20
(PID.TID 0000.0001)   Seconds in section "ICEFRONT_THERMODYNAMICS [DO_OCEANIC_PHYS]":
(PID.TID 0000.0001)           User time:  0.21000000000000085
(PID.TID 0000.0001)         System time:   0.0000000000000000
(PID.TID 0000.0001)     Wall clock time:  0.22306942939758301
(PID.TID 0000.0001)          No. starts:          20
(PID.TID 0000.0001)           No. stops:          20
(PID.TID 0000.0001)   Seconds in section "THERMODYNAMICS      [FORWARD_STEP]":
(PID.TID 0000.0001)           User time:   6.7499999999999858
(PID.TID 0000.0001)         System time:   0.0000000000000000
(PID.TID 0000.0001)     Wall clock time:   6.7289474010467529
(PID.TID 0000.0001)          No. starts:          20
(PID.TID 0000.0001)           No. stops:          20
(PID.TID 0000.0001)   Seconds in section "DYNAMICS            [FORWARD_STEP]":
(PID.TID 0000.0001)           User time:   16.680000000000007
(PID.TID 0000.0001)         System time:   0.0000000000000000
(PID.TID 0000.0001)     Wall clock time:   16.771621942520142
(PID.TID 0000.0001)          No. starts:          20
(PID.TID 0000.0001)           No. stops:          20
(PID.TID 0000.0001)   Seconds in section "UPDATE_SURF_DR      [FORWARD_STEP]":
(PID.TID 0000.0001)           User time:  0.19999999999999574
(PID.TID 0000.0001)         System time:   0.0000000000000000
(PID.TID 0000.0001)     Wall clock time:  0.19930720329284668
(PID.TID 0000.0001)          No. starts:          20
(PID.TID 0000.0001)           No. stops:          20
(PID.TID 0000.0001)   Seconds in section "SOLVE_FOR_PRESSURE  [FORWARD_STEP]":
(PID.TID 0000.0001)           User time:   8.8500000000000085
(PID.TID 0000.0001)         System time:   0.0000000000000000
(PID.TID 0000.0001)     Wall clock time:   8.8671605587005615
(PID.TID 0000.0001)          No. starts:          20
(PID.TID 0000.0001)           No. stops:          20
(PID.TID 0000.0001)   Seconds in section "MOM_CORRECTION_STEP [FORWARD_STEP]":
(PID.TID 0000.0001)           User time:  0.66999999999999460
(PID.TID 0000.0001)         System time:   0.0000000000000000
(PID.TID 0000.0001)     Wall clock time:  0.63868761062622070
(PID.TID 0000.0001)          No. starts:          20
(PID.TID 0000.0001)           No. stops:          20
(PID.TID 0000.0001)   Seconds in section "INTEGR_CONTINUITY   [FORWARD_STEP]":
(PID.TID 0000.0001)           User time:   1.0199999999999889
(PID.TID 0000.0001)         System time:   0.0000000000000000
(PID.TID 0000.0001)     Wall clock time:   1.0142431259155273
(PID.TID 0000.0001)          No. starts:          20
(PID.TID 0000.0001)           No. stops:          20
(PID.TID 0000.0001)   Seconds in section "TRC_CORRECTION_STEP [FORWARD_STEP]":
(PID.TID 0000.0001)           User time:   1.9800000000000111
(PID.TID 0000.0001)         System time:   0.0000000000000000
(PID.TID 0000.0001)     Wall clock time:   1.9864745140075684
(PID.TID 0000.0001)          No. starts:          20
(PID.TID 0000.0001)           No. stops:          20
(PID.TID 0000.0001)   Seconds in section "BLOCKING_EXCHANGES  [FORWARD_STEP]":
(PID.TID 0000.0001)           User time:  0.25999999999999801
(PID.TID 0000.0001)         System time:   0.0000000000000000
(PID.TID 0000.0001)     Wall clock time:  0.27729892730712891
(PID.TID 0000.0001)          No. starts:          20
(PID.TID 0000.0001)           No. stops:          20
(PID.TID 0000.0001)   Seconds in section "DO_STATEVARS_TAVE   [FORWARD_STEP]":
(PID.TID 0000.0001)           User time:   0.0000000000000000
(PID.TID 0000.0001)         System time:   0.0000000000000000
(PID.TID 0000.0001)     Wall clock time:  1.96218490600585938E-004
(PID.TID 0000.0001)          No. starts:          20
(PID.TID 0000.0001)           No. stops:          20
(PID.TID 0000.0001)   Seconds in section "MONITOR             [FORWARD_STEP]":
(PID.TID 0000.0001)           User time:   5.0400000000000063
(PID.TID 0000.0001)         System time:   0.0000000000000000
(PID.TID 0000.0001)     Wall clock time:   5.0701508522033691
(PID.TID 0000.0001)          No. starts:          20
(PID.TID 0000.0001)           No. stops:          20
(PID.TID 0000.0001)   Seconds in section "DO_THE_MODEL_IO     [FORWARD_STEP]":
(PID.TID 0000.0001)           User time:  0.12999999999999545
(PID.TID 0000.0001)         System time:  1.00000000000000019E-002
(PID.TID 0000.0001)     Wall clock time:  0.13064599037170410
(PID.TID 0000.0001)          No. starts:          20
(PID.TID 0000.0001)           No. stops:          20
(PID.TID 0000.0001)   Seconds in section "DO_WRITE_PICKUP     [FORWARD_STEP]":
(PID.TID 0000.0001)           User time:  0.10999999999999943
(PID.TID 0000.0001)         System time:  2.99999999999999989E-002
(PID.TID 0000.0001)     Wall clock time:  0.13277482986450195
(PID.TID 0000.0001)          No. starts:          20
(PID.TID 0000.0001)           No. stops:          20
(PID.TID 0000.0001) // ======================================================
(PID.TID 0000.0001) // Tile <-> Tile communication statistics
(PID.TID 0000.0001) // ======================================================
(PID.TID 0000.0001) // o Tile number: 000001
(PID.TID 0000.0001) //         No. X exchanges =              0
(PID.TID 0000.0001) //            Max. X spins =              0
(PID.TID 0000.0001) //            Min. X spins =     1000000000
(PID.TID 0000.0001) //          Total. X spins =              0
(PID.TID 0000.0001) //            Avg. X spins =       0.00E+00
(PID.TID 0000.0001) //         No. Y exchanges =              0
(PID.TID 0000.0001) //            Max. Y spins =              0
(PID.TID 0000.0001) //            Min. Y spins =     1000000000
(PID.TID 0000.0001) //          Total. Y spins =              0
(PID.TID 0000.0001) //            Avg. Y spins =       0.00E+00
(PID.TID 0000.0001) // o Tile number: 000002
(PID.TID 0000.0001) //         No. X exchanges =              0
(PID.TID 0000.0001) //            Max. X spins =              0
(PID.TID 0000.0001) //            Min. X spins =     1000000000
(PID.TID 0000.0001) //          Total. X spins =              0
(PID.TID 0000.0001) //            Avg. X spins =       0.00E+00
(PID.TID 0000.0001) //         No. Y exchanges =              0
(PID.TID 0000.0001) //            Max. Y spins =              0
(PID.TID 0000.0001) //            Min. Y spins =     1000000000
(PID.TID 0000.0001) //          Total. Y spins =              0
(PID.TID 0000.0001) //            Avg. Y spins =       0.00E+00
(PID.TID 0000.0001) // o Thread number: 000001
(PID.TID 0000.0001) //            No. barriers =          28142
(PID.TID 0000.0001) //      Max. barrier spins =              1
(PID.TID 0000.0001) //      Min. barrier spins =              1
(PID.TID 0000.0001) //     Total barrier spins =          28142
(PID.TID 0000.0001) //      Avg. barrier spins =       1.00E+00
PROGRAM MAIN: Execution ended Normally
