(PID.TID 0000.0001) 
(PID.TID 0000.0001) // ======================================================
(PID.TID 0000.0001) //                      MITgcm UV
(PID.TID 0000.0001) //                      =========
(PID.TID 0000.0001) // ======================================================
(PID.TID 0000.0001) // execution environment starting up...
(PID.TID 0000.0001) 
(PID.TID 0000.0001) // MITgcmUV version:  checkpoint64f
(PID.TID 0000.0001) // Build user:        jmc
(PID.TID 0000.0001) // Build host:        baudelaire
(PID.TID 0000.0001) // Build date:        Thu Apr 11 15:50:54 EDT 2013
(PID.TID 0000.0001) 
(PID.TID 0000.0001) // =======================================================
(PID.TID 0000.0001) // Execution Environment parameter file "eedata"
(PID.TID 0000.0001) // =======================================================
(PID.TID 0000.0001) ># Example "eedata" file
(PID.TID 0000.0001) ># Lines beginning "#" are comments
(PID.TID 0000.0001) ># nTx - No. threads per process in X
(PID.TID 0000.0001) ># nTy - No. threads per process in Y
(PID.TID 0000.0001) > &EEPARMS
(PID.TID 0000.0001) > /
(PID.TID 0000.0001) ># Note: Some systems use & as the
(PID.TID 0000.0001) ># namelist terminator. Other systems
(PID.TID 0000.0001) ># use a / character (as shown here).
(PID.TID 0000.0001) 
(PID.TID 0000.0001) // =======================================================
(PID.TID 0000.0001) // Computational Grid Specification ( see files "SIZE.h" )
(PID.TID 0000.0001) //                                  ( and "eedata"       )
(PID.TID 0000.0001) // =======================================================
(PID.TID 0000.0001)      nPx =    1 ; /* No. processes in X */
(PID.TID 0000.0001)      nPy =    1 ; /* No. processes in Y */
(PID.TID 0000.0001)      nSx =    1 ; /* No. tiles in X per process */
(PID.TID 0000.0001)      nSy =    2 ; /* No. tiles in Y per process */
(PID.TID 0000.0001)      sNx =   50 ; /* Tile size in X */
(PID.TID 0000.0001)      sNy =   50 ; /* Tile size in Y */
(PID.TID 0000.0001)      OLx =    3 ; /* Tile overlap distance in X */
(PID.TID 0000.0001)      OLy =    3 ; /* Tile overlap distance in Y */
(PID.TID 0000.0001)      nTx =    1 ; /* No. threads in X per process */
(PID.TID 0000.0001)      nTy =    1 ; /* No. threads in Y per process */
(PID.TID 0000.0001)       Nr =   30 ; /* No. levels in the vertical   */
(PID.TID 0000.0001)       Nx =   50 ; /* Total domain size in X ( = nPx*nSx*sNx ) */
(PID.TID 0000.0001)       Ny =  100 ; /* Total domain size in Y ( = nPy*nSy*sNy ) */
(PID.TID 0000.0001)   nTiles =    2 ; /* Total no. tiles per process ( = nSx*nSy ) */
(PID.TID 0000.0001)   nProcs =    1 ; /* Total no. processes ( = nPx*nPy ) */
(PID.TID 0000.0001) nThreads =    1 ; /* Total no. threads per process ( = nTx*nTy ) */
(PID.TID 0000.0001) usingMPI =    F ; /* Flag used to control whether MPI is in use */
(PID.TID 0000.0001)                   /*  note: To execute a program with MPI calls */
(PID.TID 0000.0001)                   /*  it must be launched appropriately e.g     */
(PID.TID 0000.0001)                   /*  "mpirun -np 64 ......"                    */
(PID.TID 0000.0001) useCoupler=    F ;/* Flag used to control communications with   */
(PID.TID 0000.0001)                   /*  other model components, through a coupler */
(PID.TID 0000.0001) debugMode =    F ; /* print debug msg. (sequence of S/R calls)  */
(PID.TID 0000.0001) printMapIncludesZeros=    F ; /* print zeros in Std.Output maps */
(PID.TID 0000.0001) maxLengthPrt1D=   65 /* maxLength of 1D array printed to StdOut */
(PID.TID 0000.0001) 
(PID.TID 0000.0001) // ======================================================
(PID.TID 0000.0001) // Mapping of tiles to threads
(PID.TID 0000.0001) // ======================================================
(PID.TID 0000.0001) // -o- Thread   1, tiles (   1:   1,   1:   2)
(PID.TID 0000.0001) 
(PID.TID 0000.0001) // ======================================================
(PID.TID 0000.0001) // Tile <-> Tile connectvity table
(PID.TID 0000.0001) // ======================================================
(PID.TID 0000.0001) // Tile number: 000001 (process no. = 000000)
(PID.TID 0000.0001) //        WEST: Tile = 000001, Process = 000000, Comm = put
(PID.TID 0000.0001) //                bi = 000001, bj = 000001
(PID.TID 0000.0001) //        EAST: Tile = 000001, Process = 000000, Comm = put
(PID.TID 0000.0001) //                bi = 000001, bj = 000001
(PID.TID 0000.0001) //       SOUTH: Tile = 000002, Process = 000000, Comm = put
(PID.TID 0000.0001) //                bi = 000001, bj = 000002
(PID.TID 0000.0001) //       NORTH: Tile = 000002, Process = 000000, Comm = put
(PID.TID 0000.0001) //                bi = 000001, bj = 000002
(PID.TID 0000.0001) // Tile number: 000002 (process no. = 000000)
(PID.TID 0000.0001) //        WEST: Tile = 000002, Process = 000000, Comm = put
(PID.TID 0000.0001) //                bi = 000001, bj = 000002
(PID.TID 0000.0001) //        EAST: Tile = 000002, Process = 000000, Comm = put
(PID.TID 0000.0001) //                bi = 000001, bj = 000002
(PID.TID 0000.0001) //       SOUTH: Tile = 000001, Process = 000000, Comm = put
(PID.TID 0000.0001) //                bi = 000001, bj = 000001
(PID.TID 0000.0001) //       NORTH: Tile = 000001, Process = 000000, Comm = put
(PID.TID 0000.0001) //                bi = 000001, bj = 000001
(PID.TID 0000.0001) 
(PID.TID 0000.0001)  INI_PARMS: opening model parameter file "data"
(PID.TID 0000.0001)  OPEN_COPY_DATA_FILE: opening file data
(PID.TID 0000.0001) // =======================================================
(PID.TID 0000.0001) // Parameter file "data"
(PID.TID 0000.0001) // =======================================================
(PID.TID 0000.0001) ># ====================
(PID.TID 0000.0001) ># | Model parameters |
(PID.TID 0000.0001) ># ====================
(PID.TID 0000.0001) >#
(PID.TID 0000.0001) ># Continuous equation parameters
(PID.TID 0000.0001) > &PARM01
(PID.TID 0000.0001) > Tref = 30*-1.9,
(PID.TID 0000.0001) > Sref = 30*34.4,
(PID.TID 0000.0001) > viscAz=1.E-3,
(PID.TID 0000.0001) > viscAh=600.0,
(PID.TID 0000.0001) > no_slip_sides=.FALSE.,
(PID.TID 0000.0001) > no_slip_bottom=.FALSE.,
(PID.TID 0000.0001) > diffKhT=100.0,
(PID.TID 0000.0001) > diffKzT=5.E-5,
(PID.TID 0000.0001) > diffKhS=100.0,
(PID.TID 0000.0001) > diffKzS=5.E-5,
(PID.TID 0000.0001) > bottomDragQuadratic=2.5E-3,
(PID.TID 0000.0001) > eosType='JMD95Z',
(PID.TID 0000.0001) > HeatCapacity_cp = 3974.0,
(PID.TID 0000.0001) > rhoConst=1030.,
(PID.TID 0000.0001) > rhoNil=1030.,
(PID.TID 0000.0001) > gravity=9.81,
(PID.TID 0000.0001) > convertFW2Salt = 33.4,
(PID.TID 0000.0001) > rigidLid=.FALSE.,
(PID.TID 0000.0001) > implicitFreeSurface=.TRUE.,
(PID.TID 0000.0001) > exactConserv=.TRUE.,
(PID.TID 0000.0001) > hFacMin=0.05,
(PID.TID 0000.0001) > nonHydrostatic=.FALSE.,
(PID.TID 0000.0001) > readBinaryPrec=64,
(PID.TID 0000.0001) > useCDScheme = .TRUE.,
(PID.TID 0000.0001) > /
(PID.TID 0000.0001) >
(PID.TID 0000.0001) ># Elliptic solver parameters
(PID.TID 0000.0001) > &PARM02
(PID.TID 0000.0001) > cg2dMaxIters=1000,
(PID.TID 0000.0001) > cg2dTargetResidual=1.E-13,
(PID.TID 0000.0001) > cg3dMaxIters=400,
(PID.TID 0000.0001) > cg3dTargetResidual=1.E-13,
(PID.TID 0000.0001) > /
(PID.TID 0000.0001) >
(PID.TID 0000.0001) ># Time stepping parameters
(PID.TID 0000.0001) > &PARM03
(PID.TID 0000.0001) > nIter0=0,
(PID.TID 0000.0001) > nTimeSteps=20,
(PID.TID 0000.0001) > deltaT=1800.0,
(PID.TID 0000.0001) > abEps=0.1,
(PID.TID 0000.0001) > cAdjFreq = -1.,
(PID.TID 0000.0001) > tauCD = 400000.,
(PID.TID 0000.0001) > pChkptFreq=0.0,
(PID.TID 0000.0001) > chkptFreq=0.0,
(PID.TID 0000.0001) > dumpFreq=0.0,
(PID.TID 0000.0001) > taveFreq=0.0,
(PID.TID 0000.0001) > monitorFreq=1.,
(PID.TID 0000.0001) > monitorSelect=2,
(PID.TID 0000.0001) > /
(PID.TID 0000.0001) >
(PID.TID 0000.0001) ># Gridding parameters
(PID.TID 0000.0001) > &PARM04
(PID.TID 0000.0001) > usingSphericalPolarGrid=.TRUE.,
(PID.TID 0000.0001) > ygOrigin = -80.0,
(PID.TID 0000.0001) > delX=50*0.3,
(PID.TID 0000.0001) > delY=100*0.1,
(PID.TID 0000.0001) > delZ=30*30.0,
(PID.TID 0000.0001) > /
(PID.TID 0000.0001) >
(PID.TID 0000.0001) ># Input datasets
(PID.TID 0000.0001) > &PARM05
(PID.TID 0000.0001) > bathyFile='bathy.box',
(PID.TID 0000.0001) > /
(PID.TID 0000.0001) 
(PID.TID 0000.0001)  INI_PARMS ; starts to read PARM01
(PID.TID 0000.0001)  INI_PARMS ; read PARM01 : OK
(PID.TID 0000.0001)  INI_PARMS ; starts to read PARM02
(PID.TID 0000.0001)  INI_PARMS ; read PARM02 : OK
(PID.TID 0000.0001)  INI_PARMS ; starts to read PARM03
(PID.TID 0000.0001)  INI_PARMS ; read PARM03 : OK
(PID.TID 0000.0001)  INI_PARMS ; starts to read PARM04
(PID.TID 0000.0001)  INI_PARMS ; read PARM04 : OK
(PID.TID 0000.0001)  INI_PARMS ; starts to read PARM05
(PID.TID 0000.0001)  INI_PARMS ; read PARM05 : OK
(PID.TID 0000.0001)  INI_PARMS: finished reading file "data"
(PID.TID 0000.0001)  PACKAGES_BOOT: opening data.pkg
(PID.TID 0000.0001)  OPEN_COPY_DATA_FILE: opening file data.pkg
(PID.TID 0000.0001) // =======================================================
(PID.TID 0000.0001) // Parameter file "data.pkg"
(PID.TID 0000.0001) // =======================================================
(PID.TID 0000.0001) ># Packages
(PID.TID 0000.0001) > &PACKAGES
(PID.TID 0000.0001) > useMNC=.TRUE.,
(PID.TID 0000.0001) > useShelfIce=.true.,
(PID.TID 0000.0001) > /
(PID.TID 0000.0001) 
(PID.TID 0000.0001)  PACKAGES_BOOT: finished reading data.pkg
(PID.TID 0000.0001)  MNC_READPARMS: opening file 'data.mnc'
(PID.TID 0000.0001)  OPEN_COPY_DATA_FILE: opening file data.mnc
(PID.TID 0000.0001) // =======================================================
(PID.TID 0000.0001) // Parameter file "data.mnc"
(PID.TID 0000.0001) // =======================================================
(PID.TID 0000.0001) ># Example "data.mnc" file
(PID.TID 0000.0001) ># Lines beginning "#" are comments
(PID.TID 0000.0001) > &MNC_01
(PID.TID 0000.0001) ># mnc_echo_gvtypes=.FALSE.,
(PID.TID 0000.0001) ># mnc_use_indir=.FALSE.,
(PID.TID 0000.0001) > mnc_use_outdir=.TRUE.,
(PID.TID 0000.0001) > mnc_outdir_str='mnc_test_',
(PID.TID 0000.0001) >#mnc_outdir_date=.TRUE.,
(PID.TID 0000.0001) > monitor_mnc=.FALSE.,
(PID.TID 0000.0001) >#snapshot_mnc=.FALSE.,
(PID.TID 0000.0001) >#timeave_mnc=.FALSE.,
(PID.TID 0000.0001) > pickup_read_mnc=.FALSE.,
(PID.TID 0000.0001) > pickup_write_mnc=.FALSE.,
(PID.TID 0000.0001) > /
(PID.TID 0000.0001) ># Note: Some systems use & as the
(PID.TID 0000.0001) ># namelist terminator. Other systems
(PID.TID 0000.0001) ># use a / character (as shown here).
(PID.TID 0000.0001) 
(PID.TID 0000.0001)  MNC_READPARMS: finished reading data.mnc
(PID.TID 0000.0001)  SHELFICE_READPARMS: opening data.shelfice
(PID.TID 0000.0001)  OPEN_COPY_DATA_FILE: opening file data.shelfice
(PID.TID 0000.0001) // =======================================================
(PID.TID 0000.0001) // Parameter file "data.shelfice"
(PID.TID 0000.0001) // =======================================================
(PID.TID 0000.0001) ># ===================================
(PID.TID 0000.0001) ># | Parameters for SHELFICE package |
(PID.TID 0000.0001) ># ===================================
(PID.TID 0000.0001) > &SHELFICE_PARM01
(PID.TID 0000.0001) > SHELFICEboundaryLayer = .TRUE.,
(PID.TID 0000.0001) > SHELFICEtopoFile='icetopo.exp1',
(PID.TID 0000.0001) > SHELFICEloadAnomalyFile = 'phi0surf.exp1.jmd95z',
(PID.TID 0000.0001) > useISOMIPTD = .TRUE.,
(PID.TID 0000.0001) > SHELFICEuseGammaFrict = .FALSE.,
(PID.TID 0000.0001) > no_slip_shelfice = .false.,
(PID.TID 0000.0001) > SHELFICEwriteState = .TRUE.,
(PID.TID 0000.0001) > /
(PID.TID 0000.0001) 
(PID.TID 0000.0001)  SHELFICE_READPARMS: finished reading data.shelfice
(PID.TID 0000.0001) SET_PARMS: done
(PID.TID 0000.0001) Enter INI_VERTICAL_GRID: setInterFDr=    T ; setCenterDr=    F
(PID.TID 0000.0001) %MON XC_max                       =   1.4850000000000E+01
(PID.TID 0000.0001) %MON XC_min                       =   1.5000000000000E-01
(PID.TID 0000.0001) %MON XC_mean                      =   7.5000000000000E+00
(PID.TID 0000.0001) %MON XC_sd                        =   4.3292609068985E+00
(PID.TID 0000.0001) %MON XG_max                       =   1.4700000000000E+01
(PID.TID 0000.0001) %MON XG_min                       =   1.1102230246252E-16
(PID.TID 0000.0001) %MON XG_mean                      =   7.3500000000000E+00
(PID.TID 0000.0001) %MON XG_sd                        =   4.3292609068985E+00
(PID.TID 0000.0001) %MON DXC_max                      =   1.1380125394806E+04
(PID.TID 0000.0001) %MON DXC_min                      =   5.8203914905589E+03
(PID.TID 0000.0001) %MON DXC_mean                     =   8.6215028627206E+03
(PID.TID 0000.0001) %MON DXC_sd                       =   1.6219001271572E+03
(PID.TID 0000.0001) %MON DXF_max                      =   1.1380125394806E+04
(PID.TID 0000.0001) %MON DXF_min                      =   5.8203914905589E+03
(PID.TID 0000.0001) %MON DXF_mean                     =   8.6215028627206E+03
(PID.TID 0000.0001) %MON DXF_sd                       =   1.6219001271572E+03
(PID.TID 0000.0001) %MON DXG_max                      =   1.1352761512017E+04
(PID.TID 0000.0001) %MON DXG_min                      =   5.7917296935586E+03
(PID.TID 0000.0001) %MON DXG_mean                     =   8.5934208253080E+03
(PID.TID 0000.0001) %MON DXG_sd                       =   1.6222785520817E+03
(PID.TID 0000.0001) %MON DXV_max                      =   1.1352761512017E+04
(PID.TID 0000.0001) %MON DXV_min                      =   5.7917296935586E+03
(PID.TID 0000.0001) %MON DXV_mean                     =   8.5934208253080E+03
(PID.TID 0000.0001) %MON DXV_sd                       =   1.6222785520817E+03
(PID.TID 0000.0001) %MON YC_max                       =  -7.0050000000001E+01
(PID.TID 0000.0001) %MON YC_min                       =  -7.9950000000000E+01
(PID.TID 0000.0001) %MON YC_mean                      =  -7.5000000000000E+01
(PID.TID 0000.0001) %MON YC_sd                        =   2.8866070047720E+00
(PID.TID 0000.0001) %MON YG_max                       =  -7.0100000000001E+01
(PID.TID 0000.0001) %MON YG_min                       =  -8.0000000000000E+01
(PID.TID 0000.0001) %MON YG_mean                      =  -7.5050000000000E+01
(PID.TID 0000.0001) %MON YG_sd                        =   2.8866070047720E+00
(PID.TID 0000.0001) %MON DYC_max                      =   1.1117747335204E+04
(PID.TID 0000.0001) %MON DYC_min                      =   1.1117747335204E+04
(PID.TID 0000.0001) %MON DYC_mean                     =   1.1117747335203E+04
(PID.TID 0000.0001) %MON DYC_sd                       =   6.0754246078432E-10
(PID.TID 0000.0001) %MON DYF_max                      =   1.1117747335204E+04
(PID.TID 0000.0001) %MON DYF_min                      =   1.1117747335204E+04
(PID.TID 0000.0001) %MON DYF_mean                     =   1.1117747335203E+04
(PID.TID 0000.0001) %MON DYF_sd                       =   6.0754246078432E-10
(PID.TID 0000.0001) %MON DYG_max                      =   1.1117747335204E+04
(PID.TID 0000.0001) %MON DYG_min                      =   1.1117747335204E+04
(PID.TID 0000.0001) %MON DYG_mean                     =   1.1117747335203E+04
(PID.TID 0000.0001) %MON DYG_sd                       =   6.0754246078432E-10
(PID.TID 0000.0001) %MON DYU_max                      =   1.1117747335204E+04
(PID.TID 0000.0001) %MON DYU_min                      =   1.1117747335204E+04
(PID.TID 0000.0001) %MON DYU_mean                     =   1.1117747335203E+04
(PID.TID 0000.0001) %MON DYU_sd                       =   6.0754246078432E-10
(PID.TID 0000.0001) %MON RA_max                       =   1.2652134272379E+08
(PID.TID 0000.0001) %MON RA_min                       =   6.4709633770803E+07
(PID.TID 0000.0001) %MON RA_mean                      =   9.5851678311588E+07
(PID.TID 0000.0001) %MON RA_sd                        =   1.8031873527991E+07
(PID.TID 0000.0001) %MON RAW_max                      =   1.2652134272379E+08
(PID.TID 0000.0001) %MON RAW_min                      =   6.4709633770803E+07
(PID.TID 0000.0001) %MON RAW_mean                     =   9.5851678311588E+07
(PID.TID 0000.0001) %MON RAW_sd                       =   1.8031873527991E+07
(PID.TID 0000.0001) %MON RAS_max                      =   1.2621711802744E+08
(PID.TID 0000.0001) %MON RAS_min                      =   6.4390979194019E+07
(PID.TID 0000.0001) %MON RAS_mean                     =   9.5539469354603E+07
(PID.TID 0000.0001) %MON RAS_sd                       =   1.8036080760153E+07
(PID.TID 0000.0001) %MON RAZ_max                      =   1.2621711802744E+08
(PID.TID 0000.0001) %MON RAZ_min                      =   6.4390979194019E+07
(PID.TID 0000.0001) %MON RAZ_mean                     =   9.5539469354603E+07
(PID.TID 0000.0001) %MON RAZ_sd                       =   1.8036080760153E+07
(PID.TID 0000.0001) %MON AngleCS_max                  =   1.0000000000000E+00
(PID.TID 0000.0001) %MON AngleCS_min                  =   1.0000000000000E+00
(PID.TID 0000.0001) %MON AngleCS_mean                 =   1.0000000000000E+00
(PID.TID 0000.0001) %MON AngleCS_sd                   =   0.0000000000000E+00
(PID.TID 0000.0001) %MON AngleSN_max                  =   0.0000000000000E+00
(PID.TID 0000.0001) %MON AngleSN_min                  =   0.0000000000000E+00
(PID.TID 0000.0001) %MON AngleSN_mean                 =   0.0000000000000E+00
(PID.TID 0000.0001) %MON AngleSN_sd                   =   0.0000000000000E+00
(PID.TID 0000.0001)  MDS_READ_FIELD: opening global file: bathy.box
(PID.TID 0000.0001)  MDS_READ_FIELD: opening global file: icetopo.exp1
(PID.TID 0000.0001) // =======================================================
(PID.TID 0000.0001) // Field Model R_low (ini_masks_etc)
(PID.TID 0000.0001) // CMIN =         -9.000000000000000E+02
(PID.TID 0000.0001) // CMAX =         -9.000000000000000E+02
(PID.TID 0000.0001) // CINT =          0.000000000000000E+00
(PID.TID 0000.0001) // SYMBOLS (CMIN->CMAX): -abcdefghijklmnopqrstuvwxyz+
(PID.TID 0000.0001) //                  0.0: .
(PID.TID 0000.0001) // RANGE I (Lo:Hi:Step):(    -2:    53:     1)
(PID.TID 0000.0001) // RANGE J (Lo:Hi:Step):(   103:    -2:    -1)
(PID.TID 0000.0001) // RANGE K (Lo:Hi:Step):(   1:   1:   1)
(PID.TID 0000.0001) // =======================================================
(PID.TID 0000.0001) // =======================================================
(PID.TID 0000.0001) // END OF FIELD                                          =
(PID.TID 0000.0001) // =======================================================
(PID.TID 0000.0001) 
(PID.TID 0000.0001) // =======================================================
(PID.TID 0000.0001) // Field Model Ro_surf (ini_masks_etc)
(PID.TID 0000.0001) // CMIN =         -6.812500000000010E+02
(PID.TID 0000.0001) // CMAX =         -2.000000000000000E+02
(PID.TID 0000.0001) // CINT =          1.782407407407411E+01
(PID.TID 0000.0001) // SYMBOLS (CMIN->CMAX): -abcdefghijklmnopqrstuvwxyz+
(PID.TID 0000.0001) //                  0.0: .
(PID.TID 0000.0001) // RANGE I (Lo:Hi:Step):(    -2:    53:     1)
(PID.TID 0000.0001) // RANGE J (Lo:Hi:Step):(   103:    -2:    -1)
(PID.TID 0000.0001) // RANGE K (Lo:Hi:Step):(   1:   1:   1)
(PID.TID 0000.0001) // =======================================================
(PID.TID 0000.0001) K =   1
(PID.TID 0000.0001) //                I=7       I=17      I=27      I=37      I=47
(PID.TID 0000.0001) // |--J--|210123456|890123456|890123456|890123456|890123456|890123
(PID.TID 0000.0001) //    103 aaa.aaaaaaaaaaaaaaaaaaaaaaaaaaaaaaaaaaaaaaaaaaaaaaaaa.aa
(PID.TID 0000.0001) //    102 ---.-------------------------------------------------.--
(PID.TID 0000.0001) //    101 ........................................................
(PID.TID 0000.0001) //    100 +++.+++++++++++++++++++++++++++++++++++++++++++++++++.++
(PID.TID 0000.0001) //     99 +++.+++++++++++++++++++++++++++++++++++++++++++++++++.++
(PID.TID 0000.0001) //     98 +++.+++++++++++++++++++++++++++++++++++++++++++++++++.++
(PID.TID 0000.0001) //     97 +++.+++++++++++++++++++++++++++++++++++++++++++++++++.++
(PID.TID 0000.0001) //     96 +++.+++++++++++++++++++++++++++++++++++++++++++++++++.++
(PID.TID 0000.0001) //     95 +++.+++++++++++++++++++++++++++++++++++++++++++++++++.++
(PID.TID 0000.0001) //     94 +++.+++++++++++++++++++++++++++++++++++++++++++++++++.++
(PID.TID 0000.0001) //     93 +++.+++++++++++++++++++++++++++++++++++++++++++++++++.++
(PID.TID 0000.0001) //     92 +++.+++++++++++++++++++++++++++++++++++++++++++++++++.++
(PID.TID 0000.0001) //     91 +++.+++++++++++++++++++++++++++++++++++++++++++++++++.++
(PID.TID 0000.0001) //     90 +++.+++++++++++++++++++++++++++++++++++++++++++++++++.++
(PID.TID 0000.0001) //     89 +++.+++++++++++++++++++++++++++++++++++++++++++++++++.++
(PID.TID 0000.0001) //     88 +++.+++++++++++++++++++++++++++++++++++++++++++++++++.++
(PID.TID 0000.0001) //     87 +++.+++++++++++++++++++++++++++++++++++++++++++++++++.++
(PID.TID 0000.0001) //     86 +++.+++++++++++++++++++++++++++++++++++++++++++++++++.++
(PID.TID 0000.0001) //     85 +++.+++++++++++++++++++++++++++++++++++++++++++++++++.++
(PID.TID 0000.0001) //     84 +++.+++++++++++++++++++++++++++++++++++++++++++++++++.++
(PID.TID 0000.0001) //     83 +++.+++++++++++++++++++++++++++++++++++++++++++++++++.++
(PID.TID 0000.0001) //     82 +++.+++++++++++++++++++++++++++++++++++++++++++++++++.++
(PID.TID 0000.0001) //     81 +++.+++++++++++++++++++++++++++++++++++++++++++++++++.++
(PID.TID 0000.0001) //     80 +++.+++++++++++++++++++++++++++++++++++++++++++++++++.++
(PID.TID 0000.0001) //     79 +++.+++++++++++++++++++++++++++++++++++++++++++++++++.++
(PID.TID 0000.0001) //     78 +++.+++++++++++++++++++++++++++++++++++++++++++++++++.++
(PID.TID 0000.0001) //     77 +++.+++++++++++++++++++++++++++++++++++++++++++++++++.++
(PID.TID 0000.0001) //     76 +++.+++++++++++++++++++++++++++++++++++++++++++++++++.++
(PID.TID 0000.0001) //     75 +++.+++++++++++++++++++++++++++++++++++++++++++++++++.++
(PID.TID 0000.0001) //     74 +++.+++++++++++++++++++++++++++++++++++++++++++++++++.++
(PID.TID 0000.0001) //     73 +++.+++++++++++++++++++++++++++++++++++++++++++++++++.++
(PID.TID 0000.0001) //     72 +++.+++++++++++++++++++++++++++++++++++++++++++++++++.++
(PID.TID 0000.0001) //     71 +++.+++++++++++++++++++++++++++++++++++++++++++++++++.++
(PID.TID 0000.0001) //     70 +++.+++++++++++++++++++++++++++++++++++++++++++++++++.++
(PID.TID 0000.0001) //     69 +++.+++++++++++++++++++++++++++++++++++++++++++++++++.++
(PID.TID 0000.0001) //     68 +++.+++++++++++++++++++++++++++++++++++++++++++++++++.++
(PID.TID 0000.0001) //     67 +++.+++++++++++++++++++++++++++++++++++++++++++++++++.++
(PID.TID 0000.0001) //     66 +++.+++++++++++++++++++++++++++++++++++++++++++++++++.++
(PID.TID 0000.0001) //     65 +++.+++++++++++++++++++++++++++++++++++++++++++++++++.++
(PID.TID 0000.0001) //     64 +++.+++++++++++++++++++++++++++++++++++++++++++++++++.++
(PID.TID 0000.0001) //     63 +++.+++++++++++++++++++++++++++++++++++++++++++++++++.++
(PID.TID 0000.0001) //     62 +++.+++++++++++++++++++++++++++++++++++++++++++++++++.++
(PID.TID 0000.0001) //     61 +++.+++++++++++++++++++++++++++++++++++++++++++++++++.++
(PID.TID 0000.0001) //     60 +++.+++++++++++++++++++++++++++++++++++++++++++++++++.++
(PID.TID 0000.0001) //     59 +++.+++++++++++++++++++++++++++++++++++++++++++++++++.++
(PID.TID 0000.0001) //     58 +++.+++++++++++++++++++++++++++++++++++++++++++++++++.++
(PID.TID 0000.0001) //     57 +++.+++++++++++++++++++++++++++++++++++++++++++++++++.++
(PID.TID 0000.0001) //     56 +++.+++++++++++++++++++++++++++++++++++++++++++++++++.++
(PID.TID 0000.0001) //     55 +++.+++++++++++++++++++++++++++++++++++++++++++++++++.++
(PID.TID 0000.0001) //     54 +++.+++++++++++++++++++++++++++++++++++++++++++++++++.++
(PID.TID 0000.0001) //     53 +++.+++++++++++++++++++++++++++++++++++++++++++++++++.++
(PID.TID 0000.0001) //     52 +++.+++++++++++++++++++++++++++++++++++++++++++++++++.++
(PID.TID 0000.0001) //     51 +++.+++++++++++++++++++++++++++++++++++++++++++++++++.++
(PID.TID 0000.0001) //     50 +++.+++++++++++++++++++++++++++++++++++++++++++++++++.++
(PID.TID 0000.0001) //     49 +++.+++++++++++++++++++++++++++++++++++++++++++++++++.++
(PID.TID 0000.0001) //     48 +++.+++++++++++++++++++++++++++++++++++++++++++++++++.++
(PID.TID 0000.0001) //     53 +++.+++++++++++++++++++++++++++++++++++++++++++++++++.++
(PID.TID 0000.0001) //     52 +++.+++++++++++++++++++++++++++++++++++++++++++++++++.++
(PID.TID 0000.0001) //     51 +++.+++++++++++++++++++++++++++++++++++++++++++++++++.++
(PID.TID 0000.0001) //     50 +++.+++++++++++++++++++++++++++++++++++++++++++++++++.++
(PID.TID 0000.0001) //     49 +++.+++++++++++++++++++++++++++++++++++++++++++++++++.++
(PID.TID 0000.0001) //     48 +++.+++++++++++++++++++++++++++++++++++++++++++++++++.++
(PID.TID 0000.0001) //     47 +++.+++++++++++++++++++++++++++++++++++++++++++++++++.++
(PID.TID 0000.0001) //     46 +++.+++++++++++++++++++++++++++++++++++++++++++++++++.++
(PID.TID 0000.0001) //     45 +++.+++++++++++++++++++++++++++++++++++++++++++++++++.++
(PID.TID 0000.0001) //     44 +++.+++++++++++++++++++++++++++++++++++++++++++++++++.++
(PID.TID 0000.0001) //     43 +++.+++++++++++++++++++++++++++++++++++++++++++++++++.++
(PID.TID 0000.0001) //     42 +++.+++++++++++++++++++++++++++++++++++++++++++++++++.++
(PID.TID 0000.0001) //     41 +++.+++++++++++++++++++++++++++++++++++++++++++++++++.++
(PID.TID 0000.0001) //     40 +++.+++++++++++++++++++++++++++++++++++++++++++++++++.++
(PID.TID 0000.0001) //     39 zzz.zzzzzzzzzzzzzzzzzzzzzzzzzzzzzzzzzzzzzzzzzzzzzzzzz.zz
(PID.TID 0000.0001) //     38 yyy.yyyyyyyyyyyyyyyyyyyyyyyyyyyyyyyyyyyyyyyyyyyyyyyyy.yy
(PID.TID 0000.0001) //     37 yyy.yyyyyyyyyyyyyyyyyyyyyyyyyyyyyyyyyyyyyyyyyyyyyyyyy.yy
(PID.TID 0000.0001) //     36 xxx.xxxxxxxxxxxxxxxxxxxxxxxxxxxxxxxxxxxxxxxxxxxxxxxxx.xx
(PID.TID 0000.0001) //     35 www.wwwwwwwwwwwwwwwwwwwwwwwwwwwwwwwwwwwwwwwwwwwwwwwww.ww
(PID.TID 0000.0001) //     34 vvv.vvvvvvvvvvvvvvvvvvvvvvvvvvvvvvvvvvvvvvvvvvvvvvvvv.vv
(PID.TID 0000.0001) //     33 vvv.vvvvvvvvvvvvvvvvvvvvvvvvvvvvvvvvvvvvvvvvvvvvvvvvv.vv
(PID.TID 0000.0001) //     32 uuu.uuuuuuuuuuuuuuuuuuuuuuuuuuuuuuuuuuuuuuuuuuuuuuuuu.uu
(PID.TID 0000.0001) //     31 ttt.ttttttttttttttttttttttttttttttttttttttttttttttttt.tt
(PID.TID 0000.0001) //     30 ttt.ttttttttttttttttttttttttttttttttttttttttttttttttt.tt
(PID.TID 0000.0001) //     29 sss.sssssssssssssssssssssssssssssssssssssssssssssssss.ss
(PID.TID 0000.0001) //     28 rrr.rrrrrrrrrrrrrrrrrrrrrrrrrrrrrrrrrrrrrrrrrrrrrrrrr.rr
(PID.TID 0000.0001) //     27 rrr.rrrrrrrrrrrrrrrrrrrrrrrrrrrrrrrrrrrrrrrrrrrrrrrrr.rr
(PID.TID 0000.0001) //     26 qqq.qqqqqqqqqqqqqqqqqqqqqqqqqqqqqqqqqqqqqqqqqqqqqqqqq.qq
(PID.TID 0000.0001) //     25 ppp.ppppppppppppppppppppppppppppppppppppppppppppppppp.pp
(PID.TID 0000.0001) //     24 ooo.ooooooooooooooooooooooooooooooooooooooooooooooooo.oo
(PID.TID 0000.0001) //     23 ooo.ooooooooooooooooooooooooooooooooooooooooooooooooo.oo
(PID.TID 0000.0001) //     22 nnn.nnnnnnnnnnnnnnnnnnnnnnnnnnnnnnnnnnnnnnnnnnnnnnnnn.nn
(PID.TID 0000.0001) //     21 mmm.mmmmmmmmmmmmmmmmmmmmmmmmmmmmmmmmmmmmmmmmmmmmmmmmm.mm
(PID.TID 0000.0001) //     20 mmm.mmmmmmmmmmmmmmmmmmmmmmmmmmmmmmmmmmmmmmmmmmmmmmmmm.mm
(PID.TID 0000.0001) //     19 lll.lllllllllllllllllllllllllllllllllllllllllllllllll.ll
(PID.TID 0000.0001) //     18 kkk.kkkkkkkkkkkkkkkkkkkkkkkkkkkkkkkkkkkkkkkkkkkkkkkkk.kk
(PID.TID 0000.0001) //     17 kkk.kkkkkkkkkkkkkkkkkkkkkkkkkkkkkkkkkkkkkkkkkkkkkkkkk.kk
(PID.TID 0000.0001) //     16 jjj.jjjjjjjjjjjjjjjjjjjjjjjjjjjjjjjjjjjjjjjjjjjjjjjjj.jj
(PID.TID 0000.0001) //     15 iii.iiiiiiiiiiiiiiiiiiiiiiiiiiiiiiiiiiiiiiiiiiiiiiiii.ii
(PID.TID 0000.0001) //     14 hhh.hhhhhhhhhhhhhhhhhhhhhhhhhhhhhhhhhhhhhhhhhhhhhhhhh.hh
(PID.TID 0000.0001) //     13 hhh.hhhhhhhhhhhhhhhhhhhhhhhhhhhhhhhhhhhhhhhhhhhhhhhhh.hh
(PID.TID 0000.0001) //     12 ggg.ggggggggggggggggggggggggggggggggggggggggggggggggg.gg
(PID.TID 0000.0001) //     11 fff.fffffffffffffffffffffffffffffffffffffffffffffffff.ff
(PID.TID 0000.0001) //     10 fff.fffffffffffffffffffffffffffffffffffffffffffffffff.ff
(PID.TID 0000.0001) //      9 eee.eeeeeeeeeeeeeeeeeeeeeeeeeeeeeeeeeeeeeeeeeeeeeeeee.ee
(PID.TID 0000.0001) //      8 ddd.ddddddddddddddddddddddddddddddddddddddddddddddddd.dd
(PID.TID 0000.0001) //      7 ddd.ddddddddddddddddddddddddddddddddddddddddddddddddd.dd
(PID.TID 0000.0001) //      6 ccc.ccccccccccccccccccccccccccccccccccccccccccccccccc.cc
(PID.TID 0000.0001) //      5 bbb.bbbbbbbbbbbbbbbbbbbbbbbbbbbbbbbbbbbbbbbbbbbbbbbbb.bb
(PID.TID 0000.0001) //      4 aaa.aaaaaaaaaaaaaaaaaaaaaaaaaaaaaaaaaaaaaaaaaaaaaaaaa.aa
(PID.TID 0000.0001) //      3 aaa.aaaaaaaaaaaaaaaaaaaaaaaaaaaaaaaaaaaaaaaaaaaaaaaaa.aa
(PID.TID 0000.0001) //      2 ---.-------------------------------------------------.--
(PID.TID 0000.0001) //      1 ........................................................
(PID.TID 0000.0001) //      0 +++.+++++++++++++++++++++++++++++++++++++++++++++++++.++
(PID.TID 0000.0001) //     -1 +++.+++++++++++++++++++++++++++++++++++++++++++++++++.++
(PID.TID 0000.0001) //     -2 +++.+++++++++++++++++++++++++++++++++++++++++++++++++.++
(PID.TID 0000.0001) // =======================================================
(PID.TID 0000.0001) // END OF FIELD                                          =
(PID.TID 0000.0001) // =======================================================
(PID.TID 0000.0001) 
(PID.TID 0000.0001) // =======================================================
(PID.TID 0000.0001) // Field hFacC at iteration          0
(PID.TID 0000.0001) // CMIN =          1.000000000000000E+32
(PID.TID 0000.0001) // CMAX =         -1.000000000000000E+32
(PID.TID 0000.0001) // CINT =          0.000000000000000E+00
(PID.TID 0000.0001) // SYMBOLS (CMIN->CMAX): -abcdefghijklmnopqrstuvwxyz+
(PID.TID 0000.0001) //                  0.0: .
(PID.TID 0000.0001) // RANGE I (Lo:Hi:Step):(    -2:    53:     1)
(PID.TID 0000.0001) // RANGE J (Lo:Hi:Step):(   103:    -2:    -1)
(PID.TID 0000.0001) // RANGE K (Lo:Hi:Step):(   1:   1:   1)
(PID.TID 0000.0001) // =======================================================
(PID.TID 0000.0001) // =======================================================
(PID.TID 0000.0001) // END OF FIELD                                          =
(PID.TID 0000.0001) // =======================================================
(PID.TID 0000.0001) 
(PID.TID 0000.0001) // =======================================================
(PID.TID 0000.0001) // Field hFacW at iteration          0
(PID.TID 0000.0001) // CMIN =          1.000000000000000E+32
(PID.TID 0000.0001) // CMAX =         -1.000000000000000E+32
(PID.TID 0000.0001) // CINT =          0.000000000000000E+00
(PID.TID 0000.0001) // SYMBOLS (CMIN->CMAX): -abcdefghijklmnopqrstuvwxyz+
(PID.TID 0000.0001) //                  0.0: .
(PID.TID 0000.0001) // RANGE I (Lo:Hi:Step):(    -2:    53:     1)
(PID.TID 0000.0001) // RANGE J (Lo:Hi:Step):(   103:    -2:    -1)
(PID.TID 0000.0001) // RANGE K (Lo:Hi:Step):(   1:   1:   1)
(PID.TID 0000.0001) // =======================================================
(PID.TID 0000.0001) // =======================================================
(PID.TID 0000.0001) // END OF FIELD                                          =
(PID.TID 0000.0001) // =======================================================
(PID.TID 0000.0001) 
(PID.TID 0000.0001) // =======================================================
(PID.TID 0000.0001) // Field hFacS at iteration          0
(PID.TID 0000.0001) // CMIN =          1.000000000000000E+32
(PID.TID 0000.0001) // CMAX =         -1.000000000000000E+32
(PID.TID 0000.0001) // CINT =          0.000000000000000E+00
(PID.TID 0000.0001) // SYMBOLS (CMIN->CMAX): -abcdefghijklmnopqrstuvwxyz+
(PID.TID 0000.0001) //                  0.0: .
(PID.TID 0000.0001) // RANGE I (Lo:Hi:Step):(    -2:    53:     1)
(PID.TID 0000.0001) // RANGE J (Lo:Hi:Step):(   103:    -2:    -1)
(PID.TID 0000.0001) // RANGE K (Lo:Hi:Step):(   1:   1:   1)
(PID.TID 0000.0001) // =======================================================
(PID.TID 0000.0001) // =======================================================
(PID.TID 0000.0001) // END OF FIELD                                          =
(PID.TID 0000.0001) // =======================================================
(PID.TID 0000.0001) 
(PID.TID 0000.0001) GAD_INIT_FIXED: GAD_OlMinSize=  1  0  1
(PID.TID 0000.0001) 
(PID.TID 0000.0001) // ===================================
(PID.TID 0000.0001) // GAD parameters :
(PID.TID 0000.0001) // ===================================
(PID.TID 0000.0001) tempAdvScheme =   /* Temp. Horiz.Advection scheme selector */
(PID.TID 0000.0001)                       2
(PID.TID 0000.0001)     ;
(PID.TID 0000.0001) tempVertAdvScheme =   /* Temp. Vert. Advection scheme selector */
(PID.TID 0000.0001)                       2
(PID.TID 0000.0001)     ;
(PID.TID 0000.0001) tempMultiDimAdvec =   /* use Muti-Dim Advec method for Temp */
(PID.TID 0000.0001)                   F
(PID.TID 0000.0001)     ;
(PID.TID 0000.0001) tempSOM_Advection = /* use 2nd Order Moment Advection for Temp */
(PID.TID 0000.0001)                   F
(PID.TID 0000.0001)     ;
(PID.TID 0000.0001) AdamsBashforthGt = /* apply Adams-Bashforth extrapolation on Gt */
(PID.TID 0000.0001)                   T
(PID.TID 0000.0001)     ;
(PID.TID 0000.0001) AdamsBashforth_T = /* apply Adams-Bashforth extrapolation on Temp */
(PID.TID 0000.0001)                   F
(PID.TID 0000.0001)     ;
(PID.TID 0000.0001) saltAdvScheme =   /* Salt. Horiz.advection scheme selector */
(PID.TID 0000.0001)                       2
(PID.TID 0000.0001)     ;
(PID.TID 0000.0001) saltVertAdvScheme =   /* Salt. Vert. Advection scheme selector */
(PID.TID 0000.0001)                       2
(PID.TID 0000.0001)     ;
(PID.TID 0000.0001) saltMultiDimAdvec =   /* use Muti-Dim Advec method for Salt */
(PID.TID 0000.0001)                   F
(PID.TID 0000.0001)     ;
(PID.TID 0000.0001) saltSOM_Advection = /* use 2nd Order Moment Advection for Salt */
(PID.TID 0000.0001)                   F
(PID.TID 0000.0001)     ;
(PID.TID 0000.0001) AdamsBashforthGs = /* apply Adams-Bashforth extrapolation on Gs */
(PID.TID 0000.0001)                   T
(PID.TID 0000.0001)     ;
(PID.TID 0000.0001) AdamsBashforth_S = /* apply Adams-Bashforth extrapolation on Salt */
(PID.TID 0000.0001)                   F
(PID.TID 0000.0001)     ;
(PID.TID 0000.0001) // ===================================
(PID.TID 0000.0001)  MDS_READ_FIELD: opening global file: phi0surf.exp1.jmd95z
(PID.TID 0000.0001) %MON fCori_max                    =  -1.3709057042516E-04
(PID.TID 0000.0001) %MON fCori_min                    =  -1.4360464034757E-04
(PID.TID 0000.0001) %MON fCori_mean                   =  -1.4069429304699E-04
(PID.TID 0000.0001) %MON fCori_sd                     =   1.9069739624987E-06
(PID.TID 0000.0001) %MON fCoriG_max                   =  -1.3713394327439E-04
(PID.TID 0000.0001) %MON fCoriG_min                   =  -1.4362679550910E-04
(PID.TID 0000.0001) %MON fCoriG_mean                  =  -1.4072713798624E-04
(PID.TID 0000.0001) %MON fCoriG_sd                    =   1.9008093726821E-06
(PID.TID 0000.0001) %MON fCoriCos_max                 =   4.9761447480159E-05
(PID.TID 0000.0001) %MON fCoriCos_min                 =   2.5450607565678E-05
(PID.TID 0000.0001) %MON fCoriCos_mean                =   3.7698922201606E-05
(PID.TID 0000.0001) %MON fCoriCos_sd                  =   7.0920218535054E-06
(PID.TID 0000.0001) INI_CG2D: CG2D normalisation factor =  1.0404366262810520E-03
(PID.TID 0000.0001) 
(PID.TID 0000.0001) // =======================================================
(PID.TID 0000.0001) // Model configuration
(PID.TID 0000.0001) // =======================================================
(PID.TID 0000.0001) //
(PID.TID 0000.0001) // "Physical" paramters ( PARM01 in namelist )
(PID.TID 0000.0001) //
(PID.TID 0000.0001) buoyancyRelation = /* Type of relation to get Buoyancy */
(PID.TID 0000.0001)               'OCEANIC'
(PID.TID 0000.0001)     ;
(PID.TID 0000.0001) fluidIsAir   =  /* fluid major constituent is Air */
(PID.TID 0000.0001)                   F
(PID.TID 0000.0001)     ;
(PID.TID 0000.0001) fluidIsWater =  /* fluid major constituent is Water */
(PID.TID 0000.0001)                   T
(PID.TID 0000.0001)     ;
(PID.TID 0000.0001) usingPCoords =  /* use p (or p*) vertical coordinate */
(PID.TID 0000.0001)                   F
(PID.TID 0000.0001)     ;
(PID.TID 0000.0001) usingZCoords =  /* use z (or z*) vertical coordinate */
(PID.TID 0000.0001)                   T
(PID.TID 0000.0001)     ;
(PID.TID 0000.0001) tRef =   /* Reference temperature profile ( oC or K ) */
(PID.TID 0000.0001)    30 @ -1.900000000000000E+00              /* K =  1: 30 */
(PID.TID 0000.0001)     ;
(PID.TID 0000.0001) sRef =   /* Reference salinity profile ( psu ) */
(PID.TID 0000.0001)    30 @  3.440000000000000E+01              /* K =  1: 30 */
(PID.TID 0000.0001)     ;
(PID.TID 0000.0001) viscAh  =   /* Lateral eddy viscosity ( m^2/s ) */
(PID.TID 0000.0001)                 6.000000000000000E+02
(PID.TID 0000.0001)     ;
(PID.TID 0000.0001) viscAhMax = /* Maximum lateral eddy viscosity ( m^2/s ) */
(PID.TID 0000.0001)                 1.000000000000000E+21
(PID.TID 0000.0001)     ;
(PID.TID 0000.0001) viscAhGrid = /* Grid dependent lateral eddy viscosity ( non-dim. ) */
(PID.TID 0000.0001)                 0.000000000000000E+00
(PID.TID 0000.0001)     ;
(PID.TID 0000.0001) useFullLeith = /* Use Full Form of Leith Viscosity on/off flag*/
(PID.TID 0000.0001)                   F
(PID.TID 0000.0001)     ;
(PID.TID 0000.0001) useStrainTensionVisc= /* Use StrainTension Form of Viscous Operator flag*/
(PID.TID 0000.0001)                   F
(PID.TID 0000.0001)     ;
(PID.TID 0000.0001) useAreaViscLength = /* Use area for visc length instead of geom. mean*/
(PID.TID 0000.0001)                   F
(PID.TID 0000.0001)     ;
(PID.TID 0000.0001) viscC2leith = /* Leith harmonic visc. factor (on grad(vort),non-dim.) */
(PID.TID 0000.0001)                 0.000000000000000E+00
(PID.TID 0000.0001)     ;
(PID.TID 0000.0001) viscC2leithD = /* Leith harmonic viscosity factor (on grad(div),non-dim.)*/
(PID.TID 0000.0001)                 0.000000000000000E+00
(PID.TID 0000.0001)     ;
(PID.TID 0000.0001) viscC2smag = /* Smagorinsky harmonic viscosity factor (non-dim.) */
(PID.TID 0000.0001)                 0.000000000000000E+00
(PID.TID 0000.0001)     ;
(PID.TID 0000.0001) viscA4  =   /* Lateral biharmonic viscosity ( m^4/s ) */
(PID.TID 0000.0001)                 0.000000000000000E+00
(PID.TID 0000.0001)     ;
(PID.TID 0000.0001) viscA4Max = /* Maximum biharmonic viscosity ( m^2/s ) */
(PID.TID 0000.0001)                 1.000000000000000E+21
(PID.TID 0000.0001)     ;
(PID.TID 0000.0001) viscA4Grid = /* Grid dependent biharmonic viscosity ( non-dim. ) */
(PID.TID 0000.0001)                 0.000000000000000E+00
(PID.TID 0000.0001)     ;
(PID.TID 0000.0001) viscC4leith = /* Leith biharm viscosity factor (on grad(vort), non-dim.)*/
(PID.TID 0000.0001)                 0.000000000000000E+00
(PID.TID 0000.0001)     ;
(PID.TID 0000.0001) viscC4leithD = /* Leith biharm viscosity factor (on grad(div), non-dim.) */
(PID.TID 0000.0001)                 0.000000000000000E+00
(PID.TID 0000.0001)     ;
(PID.TID 0000.0001) viscC4Smag = /* Smagorinsky biharm viscosity factor (non-dim) */
(PID.TID 0000.0001)                 0.000000000000000E+00
(PID.TID 0000.0001)     ;
(PID.TID 0000.0001) no_slip_sides =  /* Viscous BCs: No-slip sides */
(PID.TID 0000.0001)                   F
(PID.TID 0000.0001)     ;
(PID.TID 0000.0001) sideDragFactor = /* side-drag scaling factor (non-dim) */
(PID.TID 0000.0001)                 2.000000000000000E+00
(PID.TID 0000.0001)     ;
(PID.TID 0000.0001) viscArNr = /* vertical profile of vertical viscosity ( m^2/s )*/
(PID.TID 0000.0001)    30 @  1.000000000000000E-03              /* K =  1: 30 */
(PID.TID 0000.0001)     ;
(PID.TID 0000.0001) no_slip_bottom =  /* Viscous BCs: No-slip bottom */
(PID.TID 0000.0001)                   F
(PID.TID 0000.0001)     ;
(PID.TID 0000.0001) bottomDragLinear = /* linear bottom-drag coefficient ( m/s ) */
(PID.TID 0000.0001)                 0.000000000000000E+00
(PID.TID 0000.0001)     ;
(PID.TID 0000.0001) bottomDragQuadratic = /* quadratic bottom-drag coefficient (-) */
(PID.TID 0000.0001)                 2.500000000000000E-03
(PID.TID 0000.0001)     ;
(PID.TID 0000.0001) diffKhT =   /* Laplacian diffusion of heat laterally ( m^2/s ) */
(PID.TID 0000.0001)                 1.000000000000000E+02
(PID.TID 0000.0001)     ;
(PID.TID 0000.0001) diffK4T =   /* Biharmonic diffusion of heat laterally ( m^4/s ) */
(PID.TID 0000.0001)                 0.000000000000000E+00
(PID.TID 0000.0001)     ;
(PID.TID 0000.0001) diffKhS =   /* Laplacian diffusion of salt laterally ( m^2/s ) */
(PID.TID 0000.0001)                 1.000000000000000E+02
(PID.TID 0000.0001)     ;
(PID.TID 0000.0001) diffK4S =   /* Biharmonic diffusion of salt laterally ( m^4/s ) */
(PID.TID 0000.0001)                 0.000000000000000E+00
(PID.TID 0000.0001)     ;
(PID.TID 0000.0001) diffKrNrT = /* vertical profile of vertical diffusion of Temp ( m^2/s )*/
(PID.TID 0000.0001)    30 @  5.000000000000000E-05              /* K =  1: 30 */
(PID.TID 0000.0001)     ;
(PID.TID 0000.0001) diffKrNrS = /* vertical profile of vertical diffusion of Salt ( m^2/s )*/
(PID.TID 0000.0001)    30 @  5.000000000000000E-05              /* K =  1: 30 */
(PID.TID 0000.0001)     ;
(PID.TID 0000.0001) diffKrBL79surf = /* Surface diffusion for Bryan and Lewis 79 ( m^2/s ) */
(PID.TID 0000.0001)                 0.000000000000000E+00
(PID.TID 0000.0001)     ;
(PID.TID 0000.0001) diffKrBL79deep = /* Deep diffusion for Bryan and Lewis 1979 ( m^2/s ) */
(PID.TID 0000.0001)                 0.000000000000000E+00
(PID.TID 0000.0001)     ;
(PID.TID 0000.0001) diffKrBL79scl = /* Depth scale for Bryan and Lewis 1979 ( m ) */
(PID.TID 0000.0001)                 2.000000000000000E+02
(PID.TID 0000.0001)     ;
(PID.TID 0000.0001) diffKrBL79Ho = /* Turning depth for Bryan and Lewis 1979 ( m ) */
(PID.TID 0000.0001)                -2.000000000000000E+03
(PID.TID 0000.0001)     ;
(PID.TID 0000.0001) ivdc_kappa = /* Implicit Vertical Diffusivity for Convection ( m^2/s) */
(PID.TID 0000.0001)                 0.000000000000000E+00
(PID.TID 0000.0001)     ;
(PID.TID 0000.0001) hMixCriteria=  /* Criteria for mixed-layer diagnostic */
(PID.TID 0000.0001)                -8.000000000000000E-01
(PID.TID 0000.0001)     ;
(PID.TID 0000.0001) dRhoSmall =  /* Parameter for mixed-layer diagnostic */
(PID.TID 0000.0001)                 1.000000000000000E-06
(PID.TID 0000.0001)     ;
(PID.TID 0000.0001) hMixSmooth=  /* Smoothing parameter for mixed-layer diagnostic */
(PID.TID 0000.0001)                 0.000000000000000E+00
(PID.TID 0000.0001)     ;
(PID.TID 0000.0001) eosType =  /* Type of Equation of State */
(PID.TID 0000.0001)               'JMD95Z'
(PID.TID 0000.0001)     ;
(PID.TID 0000.0001) celsius2K = /* 0 degree Celsius converted to Kelvin ( K ) */
(PID.TID 0000.0001)                 2.731500000000000E+02
(PID.TID 0000.0001)     ;
(PID.TID 0000.0001) rhoConst  = /* Reference density (Boussinesq)  ( kg/m^3 ) */
(PID.TID 0000.0001)                 1.030000000000000E+03
(PID.TID 0000.0001)     ;
(PID.TID 0000.0001) rhoFacC = /* normalized Reference density @ cell-Center (-) */
(PID.TID 0000.0001)    30 @  1.000000000000000E+00              /* K =  1: 30 */
(PID.TID 0000.0001)     ;
(PID.TID 0000.0001) rhoFacF = /* normalized Reference density @ W-Interface (-) */
(PID.TID 0000.0001)    31 @  1.000000000000000E+00              /* K =  1: 31 */
(PID.TID 0000.0001)     ;
(PID.TID 0000.0001) rhoConstFresh = /* Fresh-water reference density ( kg/m^3 ) */
(PID.TID 0000.0001)                 1.030000000000000E+03
(PID.TID 0000.0001)     ;
(PID.TID 0000.0001) gravity =   /* Gravitational acceleration ( m/s^2 ) */
(PID.TID 0000.0001)                 9.810000000000000E+00
(PID.TID 0000.0001)     ;
(PID.TID 0000.0001) gBaro =   /* Barotropic gravity ( m/s^2 ) */
(PID.TID 0000.0001)                 9.810000000000000E+00
(PID.TID 0000.0001)     ;
(PID.TID 0000.0001) rotationPeriod =   /* Rotation Period ( s ) */
(PID.TID 0000.0001)                 8.616400000000000E+04
(PID.TID 0000.0001)     ;
(PID.TID 0000.0001) omega =   /* Angular velocity ( rad/s ) */
(PID.TID 0000.0001)                 7.292123516990375E-05
(PID.TID 0000.0001)     ;
(PID.TID 0000.0001) f0 =   /* Reference coriolis parameter ( 1/s ) */
(PID.TID 0000.0001)                 1.000000000000000E-04
(PID.TID 0000.0001)     ;
(PID.TID 0000.0001) beta =   /* Beta ( 1/(m.s) ) */
(PID.TID 0000.0001)                 9.999999999999999E-12
(PID.TID 0000.0001)     ;
(PID.TID 0000.0001) fPrime =   /* Second coriolis parameter ( 1/s ) */
(PID.TID 0000.0001)                 0.000000000000000E+00
(PID.TID 0000.0001)     ;
(PID.TID 0000.0001) rigidLid =   /* Rigid lid on/off flag */
(PID.TID 0000.0001)                   F
(PID.TID 0000.0001)     ;
(PID.TID 0000.0001) implicitFreeSurface =   /* Implicit free surface on/off flag */
(PID.TID 0000.0001)                   T
(PID.TID 0000.0001)     ;
(PID.TID 0000.0001) freeSurfFac =   /* Implicit free surface factor */
(PID.TID 0000.0001)                 1.000000000000000E+00
(PID.TID 0000.0001)     ;
(PID.TID 0000.0001) implicSurfPress =  /* Surface Pressure implicit factor (0-1)*/
(PID.TID 0000.0001)                 1.000000000000000E+00
(PID.TID 0000.0001)     ;
(PID.TID 0000.0001) implicDiv2Dflow =  /* Barot. Flow Div. implicit factor (0-1)*/
(PID.TID 0000.0001)                 1.000000000000000E+00
(PID.TID 0000.0001)     ;
(PID.TID 0000.0001) uniformLin_PhiSurf = /* use uniform Bo_surf on/off flag*/
(PID.TID 0000.0001)                   T
(PID.TID 0000.0001)     ;
(PID.TID 0000.0001) uniformFreeSurfLev = /* free-surface level-index is uniform */
(PID.TID 0000.0001)                   F
(PID.TID 0000.0001)     ;
(PID.TID 0000.0001) hFacMin =   /* minimum partial cell factor (hFac) */
(PID.TID 0000.0001)                 5.000000000000000E-02
(PID.TID 0000.0001)     ;
(PID.TID 0000.0001) hFacMinDr = /* minimum partial cell thickness ( m) */
(PID.TID 0000.0001)                 5.000000000000000E-02
(PID.TID 0000.0001)     ;
(PID.TID 0000.0001) exactConserv =  /* Exact Volume Conservation on/off flag*/
(PID.TID 0000.0001)                   T
(PID.TID 0000.0001)     ;
(PID.TID 0000.0001) linFSConserveTr = /* Tracer correction for Lin Free Surface on/off flag*/
(PID.TID 0000.0001)                   F
(PID.TID 0000.0001)     ;
(PID.TID 0000.0001) nonlinFreeSurf = /* Non-linear Free Surf. options (-1,0,1,2,3)*/
(PID.TID 0000.0001)                       0
(PID.TID 0000.0001)      -1,0= Off ; 1,2,3= On, 2=+rescale gU,gV, 3=+update cg2d solv.
(PID.TID 0000.0001)     ;
(PID.TID 0000.0001) hFacInf =   /* lower threshold for hFac (nonlinFreeSurf only)*/
(PID.TID 0000.0001)                 2.000000000000000E-01
(PID.TID 0000.0001)     ;
(PID.TID 0000.0001) hFacSup =   /* upper threshold for hFac (nonlinFreeSurf only)*/
(PID.TID 0000.0001)                 2.000000000000000E+00
(PID.TID 0000.0001)     ;
(PID.TID 0000.0001) select_rStar = /* r* Vertical coord. options (=0 r coord.; >0 uses r*)*/
(PID.TID 0000.0001)                       0
(PID.TID 0000.0001)     ;
(PID.TID 0000.0001) useRealFreshWaterFlux = /* Real Fresh Water Flux on/off flag*/
(PID.TID 0000.0001)                   F
(PID.TID 0000.0001)     ;
(PID.TID 0000.0001) temp_EvPrRn = /* Temp. of Evap/Prec/R (UNSET=use local T)(oC)*/
(PID.TID 0000.0001)                 1.234567000000000E+05
(PID.TID 0000.0001)     ;
(PID.TID 0000.0001) salt_EvPrRn = /* Salin. of Evap/Prec/R (UNSET=use local S)(psu)*/
(PID.TID 0000.0001)                 0.000000000000000E+00
(PID.TID 0000.0001)     ;
(PID.TID 0000.0001) selectAddFluid = /* option for mass source/sink of fluid (=0: off) */
(PID.TID 0000.0001)                       0
(PID.TID 0000.0001)     ;
(PID.TID 0000.0001) temp_addMass = /* Temp. of addMass array (UNSET=use local T)(oC)*/
(PID.TID 0000.0001)                 1.234567000000000E+05
(PID.TID 0000.0001)     ;
(PID.TID 0000.0001) salt_addMass = /* Salin. of addMass array (UNSET=use local S)(psu)*/
(PID.TID 0000.0001)                 0.000000000000000E+00
(PID.TID 0000.0001)     ;
(PID.TID 0000.0001) convertFW2Salt = /* convert F.W. Flux to Salt Flux (-1=use local S)(psu)*/
(PID.TID 0000.0001)                 3.340000000000000E+01
(PID.TID 0000.0001)     ;
(PID.TID 0000.0001) use3Dsolver = /* use 3-D pressure solver on/off flag */
(PID.TID 0000.0001)                   F
(PID.TID 0000.0001)     ;
(PID.TID 0000.0001) nonHydrostatic =  /* Non-Hydrostatic on/off flag */
(PID.TID 0000.0001)                   F
(PID.TID 0000.0001)     ;
(PID.TID 0000.0001) nh_Am2 = /* Non-Hydrostatic terms scaling factor */
(PID.TID 0000.0001)                 1.000000000000000E+00
(PID.TID 0000.0001)     ;
(PID.TID 0000.0001) implicitNHPress = /* Non-Hyd Pressure implicit factor (0-1)*/
(PID.TID 0000.0001)                 1.000000000000000E+00
(PID.TID 0000.0001)     ;
(PID.TID 0000.0001) selectNHfreeSurf = /* Non-Hyd (free-)Surface option */
(PID.TID 0000.0001)                       0
(PID.TID 0000.0001)     ;
(PID.TID 0000.0001) quasiHydrostatic = /* Quasi-Hydrostatic on/off flag */
(PID.TID 0000.0001)                   F
(PID.TID 0000.0001)     ;
(PID.TID 0000.0001) calc_wVelocity = /* vertical velocity calculation on/off flag */
(PID.TID 0000.0001)                   T
(PID.TID 0000.0001)     ;
(PID.TID 0000.0001) momStepping =  /* Momentum equation on/off flag */
(PID.TID 0000.0001)                   T
(PID.TID 0000.0001)     ;
(PID.TID 0000.0001) vectorInvariantMomentum= /* Vector-Invariant Momentum on/off */
(PID.TID 0000.0001)                   F
(PID.TID 0000.0001)     ;
(PID.TID 0000.0001) momAdvection =  /* Momentum advection on/off flag */
(PID.TID 0000.0001)                   T
(PID.TID 0000.0001)     ;
(PID.TID 0000.0001) momViscosity =  /* Momentum viscosity on/off flag */
(PID.TID 0000.0001)                   T
(PID.TID 0000.0001)     ;
(PID.TID 0000.0001) momImplVertAdv= /* Momentum implicit vert. advection on/off*/
(PID.TID 0000.0001)                   F
(PID.TID 0000.0001)     ;
(PID.TID 0000.0001) implicitViscosity = /* Implicit viscosity on/off flag */
(PID.TID 0000.0001)                   F
(PID.TID 0000.0001)     ;
(PID.TID 0000.0001) metricTerms =  /* metric-Terms on/off flag */
(PID.TID 0000.0001)                   T
(PID.TID 0000.0001)     ;
(PID.TID 0000.0001) useNHMTerms = /* Non-Hydrostatic Metric-Terms on/off */
(PID.TID 0000.0001)                   F
(PID.TID 0000.0001)     ;
(PID.TID 0000.0001) selectCoriMap = /* Coriolis Map options (0,1,2,3)*/
(PID.TID 0000.0001)                       2
(PID.TID 0000.0001)     0= f-Plane ; 1= Beta-Plane ; 2= Spherical ; 3= read from file
(PID.TID 0000.0001)     ;
(PID.TID 0000.0001) use3dCoriolis = /* 3-D Coriolis on/off flag */
(PID.TID 0000.0001)                   F
(PID.TID 0000.0001)     ;
(PID.TID 0000.0001) useCoriolis =  /* Coriolis on/off flag */
(PID.TID 0000.0001)                   T
(PID.TID 0000.0001)     ;
(PID.TID 0000.0001) useCDscheme =  /* CD scheme on/off flag */
(PID.TID 0000.0001)                   T
(PID.TID 0000.0001)     ;
(PID.TID 0000.0001) useEnergyConservingCoriolis= /* Flx-Form Coriolis scheme flag */
(PID.TID 0000.0001)                   F
(PID.TID 0000.0001)     ;
(PID.TID 0000.0001) useJamartWetPoints= /* Coriolis WetPoints method flag */
(PID.TID 0000.0001)                   F
(PID.TID 0000.0001)     ;
(PID.TID 0000.0001) useJamartMomAdv= /* V.I Non-linear terms Jamart flag */
(PID.TID 0000.0001)                   F
(PID.TID 0000.0001)     ;
(PID.TID 0000.0001) useAbsVorticity= /* V.I Works with f+zeta in Coriolis */
(PID.TID 0000.0001)                   F
(PID.TID 0000.0001)     ;
(PID.TID 0000.0001) selectVortScheme= /* V.I Scheme selector for Vorticity-Term */
(PID.TID 0000.0001)               123456789
(PID.TID 0000.0001)    = 0 : enstrophy (Shallow-Water Eq.) conserving scheme by Sadourny, JAS 75
(PID.TID 0000.0001)    = 1 : same as 0 with modified hFac
(PID.TID 0000.0001)    = 2 : energy conserving scheme (used by Sadourny in JAS 75 paper)
(PID.TID 0000.0001)    = 3 : energy (general) and enstrophy (2D, nonDiv.) conserving scheme
(PID.TID 0000.0001)          from Sadourny (Burridge & Haseler, ECMWF Rep.4, 1977)
(PID.TID 0000.0001)     ;
(PID.TID 0000.0001) upwindVorticity= /* V.I Upwind bias vorticity flag */
(PID.TID 0000.0001)                   F
(PID.TID 0000.0001)     ;
(PID.TID 0000.0001) highOrderVorticity= /* V.I High order vort. advect. flag */
(PID.TID 0000.0001)                   F
(PID.TID 0000.0001)     ;
(PID.TID 0000.0001) upwindShear= /* V.I Upwind vertical Shear advection flag */
(PID.TID 0000.0001)                   F
(PID.TID 0000.0001)     ;
(PID.TID 0000.0001) selectKEscheme= /* V.I Kinetic Energy scheme selector */
(PID.TID 0000.0001)                       0
(PID.TID 0000.0001)     ;
(PID.TID 0000.0001) momForcing =  /* Momentum forcing on/off flag */
(PID.TID 0000.0001)                   T
(PID.TID 0000.0001)     ;
(PID.TID 0000.0001) momPressureForcing =  /* Momentum pressure term on/off flag */
(PID.TID 0000.0001)                   T
(PID.TID 0000.0001)     ;
(PID.TID 0000.0001) implicitIntGravWave= /* Implicit Internal Gravity Wave flag */
(PID.TID 0000.0001)                   F
(PID.TID 0000.0001)     ;
(PID.TID 0000.0001) staggerTimeStep =    /* Stagger time stepping on/off flag */
(PID.TID 0000.0001)                   F
(PID.TID 0000.0001)     ;
(PID.TID 0000.0001) doResetHFactors = /* reset thickness factors @ each time-step */
(PID.TID 0000.0001)                   F
(PID.TID 0000.0001)     ;
(PID.TID 0000.0001) multiDimAdvection =  /* enable/disable Multi-Dim Advection */
(PID.TID 0000.0001)                   T
(PID.TID 0000.0001)     ;
(PID.TID 0000.0001) useMultiDimAdvec =   /* Multi-Dim Advection is/is-not used */
(PID.TID 0000.0001)                   F
(PID.TID 0000.0001)     ;
(PID.TID 0000.0001) implicitDiffusion = /* Implicit Diffusion on/off flag */
(PID.TID 0000.0001)                   F
(PID.TID 0000.0001)     ;
(PID.TID 0000.0001) tempStepping =  /* Temperature equation on/off flag */
(PID.TID 0000.0001)                   T
(PID.TID 0000.0001)     ;
(PID.TID 0000.0001) tempAdvection = /* Temperature advection on/off flag */
(PID.TID 0000.0001)                   T
(PID.TID 0000.0001)     ;
(PID.TID 0000.0001) tempImplVertAdv = /* Temp. implicit vert. advection on/off */
(PID.TID 0000.0001)                   F
(PID.TID 0000.0001)     ;
(PID.TID 0000.0001) tempForcing  =  /* Temperature forcing on/off flag */
(PID.TID 0000.0001)                   T
(PID.TID 0000.0001)     ;
(PID.TID 0000.0001) doThetaClimRelax = /* apply SST relaxation on/off flag */
(PID.TID 0000.0001)                   F
(PID.TID 0000.0001)     ;
(PID.TID 0000.0001) tempIsActiveTr = /* Temp. is a dynamically Active Tracer */
(PID.TID 0000.0001)                   T
(PID.TID 0000.0001)     ;
(PID.TID 0000.0001) saltStepping =  /* Salinity equation on/off flag */
(PID.TID 0000.0001)                   T
(PID.TID 0000.0001)     ;
(PID.TID 0000.0001) saltAdvection = /* Salinity advection on/off flag */
(PID.TID 0000.0001)                   T
(PID.TID 0000.0001)     ;
(PID.TID 0000.0001) saltImplVertAdv = /* Sali. implicit vert. advection on/off */
(PID.TID 0000.0001)                   F
(PID.TID 0000.0001)     ;
(PID.TID 0000.0001) saltForcing  =  /* Salinity forcing on/off flag */
(PID.TID 0000.0001)                   T
(PID.TID 0000.0001)     ;
(PID.TID 0000.0001) doSaltClimRelax = /* apply SSS relaxation on/off flag */
(PID.TID 0000.0001)                   F
(PID.TID 0000.0001)     ;
(PID.TID 0000.0001) saltIsActiveTr = /* Salt  is a dynamically Active Tracer */
(PID.TID 0000.0001)                   T
(PID.TID 0000.0001)     ;
(PID.TID 0000.0001)  readBinaryPrec = /* Precision used for reading binary files */
(PID.TID 0000.0001)                      64
(PID.TID 0000.0001)     ;
(PID.TID 0000.0001) writeBinaryPrec = /* Precision used for writing binary files */
(PID.TID 0000.0001)                      32
(PID.TID 0000.0001)     ;
(PID.TID 0000.0001)  globalFiles = /* write "global" (=not per tile) files */
(PID.TID 0000.0001)                   F
(PID.TID 0000.0001)     ;
(PID.TID 0000.0001)  useSingleCpuIO = /* only master MPI process does I/O */
(PID.TID 0000.0001)                   F
(PID.TID 0000.0001)     ;
(PID.TID 0000.0001) /* debLev[*]  : level of debug & auxiliary message printing */
(PID.TID 0000.0001) debLevZero =  0 ; /* level of disabled aux. msg printing */
(PID.TID 0000.0001)    debLevA =  1 ; /* level of minimum  aux. msg printing */
(PID.TID 0000.0001)    debLevB =  2 ; /* level of low aux. print (report read-file opening)*/
(PID.TID 0000.0001)    debLevC =  3 ; /* level of moderate debug prt (most pkgs debug msg) */
(PID.TID 0000.0001)    debLevD =  4 ; /* level of enhanced debug prt (add DEBUG_STATS prt) */
(PID.TID 0000.0001)    debLevE =  5 ; /* level of extensive debug printing */
(PID.TID 0000.0001) debugLevel =  /* select debug printing level */
(PID.TID 0000.0001)                       2
(PID.TID 0000.0001)     ;
(PID.TID 0000.0001) //
(PID.TID 0000.0001) // Elliptic solver(s) paramters ( PARM02 in namelist )
(PID.TID 0000.0001) //
(PID.TID 0000.0001) cg2dMaxIters =   /* Upper limit on 2d con. grad iterations  */
(PID.TID 0000.0001)                    1000
(PID.TID 0000.0001)     ;
(PID.TID 0000.0001) cg2dChkResFreq =   /* 2d con. grad convergence test frequency */
(PID.TID 0000.0001)                       1
(PID.TID 0000.0001)     ;
(PID.TID 0000.0001) cg2dUseMinResSol= /* use cg2d last-iter(=0) / min-resid.(=1) solution */
(PID.TID 0000.0001)                       0
(PID.TID 0000.0001)     ;
(PID.TID 0000.0001) cg2dTargetResidual =   /* 2d con. grad target residual  */
(PID.TID 0000.0001)                 1.000000000000000E-13
(PID.TID 0000.0001)     ;
(PID.TID 0000.0001) cg2dTargetResWunit =   /* CG2d target residual [W units] */
(PID.TID 0000.0001)                -1.000000000000000E+00
(PID.TID 0000.0001)     ;
(PID.TID 0000.0001) cg2dPreCondFreq =   /* Freq. for updating cg2d preconditioner */
(PID.TID 0000.0001)                       1
(PID.TID 0000.0001)     ;
(PID.TID 0000.0001) useSRCGSolver =  /* use single reduction CG solver(s) */
(PID.TID 0000.0001)                   F
(PID.TID 0000.0001)     ;
(PID.TID 0000.0001) printResidualFreq = /* Freq. for printing CG residual */
(PID.TID 0000.0001)                       0
(PID.TID 0000.0001)     ;
(PID.TID 0000.0001) //
(PID.TID 0000.0001) // Time stepping paramters ( PARM03 in namelist )
(PID.TID 0000.0001) //
(PID.TID 0000.0001) deltaTMom =   /* Momentum equation timestep ( s ) */
(PID.TID 0000.0001)                 1.800000000000000E+03
(PID.TID 0000.0001)     ;
(PID.TID 0000.0001) deltaTFreeSurf = /* FreeSurface equation timestep ( s ) */
(PID.TID 0000.0001)                 1.800000000000000E+03
(PID.TID 0000.0001)     ;
(PID.TID 0000.0001) dTtracerLev =  /* Tracer equation timestep ( s ) */
(PID.TID 0000.0001)    30 @  1.800000000000000E+03              /* K =  1: 30 */
(PID.TID 0000.0001)     ;
(PID.TID 0000.0001) deltaTClock  =   /* Model clock timestep ( s ) */
(PID.TID 0000.0001)                 1.800000000000000E+03
(PID.TID 0000.0001)     ;
(PID.TID 0000.0001) cAdjFreq =   /* Convective adjustment interval ( s ) */
(PID.TID 0000.0001)                 1.800000000000000E+03
(PID.TID 0000.0001)     ;
(PID.TID 0000.0001) momForcingOutAB = /* =1: take Momentum Forcing out of Adams-Bash. stepping */
(PID.TID 0000.0001)                       0
(PID.TID 0000.0001)     ;
(PID.TID 0000.0001) tracForcingOutAB = /* =1: take T,S,pTr Forcing out of Adams-Bash. stepping */
(PID.TID 0000.0001)                       0
(PID.TID 0000.0001)     ;
(PID.TID 0000.0001) momDissip_In_AB = /* put Dissipation Tendency in Adams-Bash. stepping */
(PID.TID 0000.0001)                   T
(PID.TID 0000.0001)     ;
(PID.TID 0000.0001) doAB_onGtGs = /* apply AB on Tendencies (rather than on T,S)*/
(PID.TID 0000.0001)                   T
(PID.TID 0000.0001)     ;
(PID.TID 0000.0001) abEps =   /* Adams-Bashforth-2 stabilizing weight */
(PID.TID 0000.0001)                 1.000000000000000E-01
(PID.TID 0000.0001)     ;
(PID.TID 0000.0001) tauCD =   /* CD coupling time-scale ( s ) */
(PID.TID 0000.0001)                 4.000000000000000E+05
(PID.TID 0000.0001)     ;
(PID.TID 0000.0001) rCD =   /* Normalised CD coupling parameter */
(PID.TID 0000.0001)                 9.955000000000001E-01
(PID.TID 0000.0001)     ;
(PID.TID 0000.0001) epsAB_CD = /* AB-2 stabilizing weight for CD-scheme*/
(PID.TID 0000.0001)                 1.000000000000000E-01
(PID.TID 0000.0001)     ;
(PID.TID 0000.0001) pickupStrictlyMatch= /* stop if pickup do not strictly match */
(PID.TID 0000.0001)                   T
(PID.TID 0000.0001)     ;
(PID.TID 0000.0001) nIter0   =   /* Run starting timestep number */
(PID.TID 0000.0001)                       0
(PID.TID 0000.0001)     ;
(PID.TID 0000.0001) nTimeSteps = /* Number of timesteps */
(PID.TID 0000.0001)                      20
(PID.TID 0000.0001)     ;
(PID.TID 0000.0001) nEndIter =   /* Run ending timestep number */
(PID.TID 0000.0001)                      20
(PID.TID 0000.0001)     ;
(PID.TID 0000.0001) baseTime =   /* Model base time ( s ) */
(PID.TID 0000.0001)                 0.000000000000000E+00
(PID.TID 0000.0001)     ;
(PID.TID 0000.0001) startTime =  /* Run start time ( s ) */
(PID.TID 0000.0001)                 0.000000000000000E+00
(PID.TID 0000.0001)     ;
(PID.TID 0000.0001) endTime  =   /* Integration ending time ( s ) */
(PID.TID 0000.0001)                 3.600000000000000E+04
(PID.TID 0000.0001)     ;
(PID.TID 0000.0001) pChkPtFreq = /* Permanent restart/pickup file interval ( s ) */
(PID.TID 0000.0001)                 0.000000000000000E+00
(PID.TID 0000.0001)     ;
(PID.TID 0000.0001) chkPtFreq  = /* Rolling restart/pickup file interval ( s ) */
(PID.TID 0000.0001)                 0.000000000000000E+00
(PID.TID 0000.0001)     ;
(PID.TID 0000.0001) pickup_write_mdsio =   /* Model IO flag. */
(PID.TID 0000.0001)                   T
(PID.TID 0000.0001)     ;
(PID.TID 0000.0001) pickup_read_mdsio =   /* Model IO flag. */
(PID.TID 0000.0001)                   T
(PID.TID 0000.0001)     ;
(PID.TID 0000.0001) pickup_write_mnc =   /* Model IO flag. */
(PID.TID 0000.0001)                   F
(PID.TID 0000.0001)     ;
(PID.TID 0000.0001) pickup_read_mnc =   /* Model IO flag. */
(PID.TID 0000.0001)                   F
(PID.TID 0000.0001)     ;
(PID.TID 0000.0001) pickup_write_immed =   /* Model IO flag. */
(PID.TID 0000.0001)                   F
(PID.TID 0000.0001)     ;
(PID.TID 0000.0001) writePickupAtEnd =   /* Model IO flag. */
(PID.TID 0000.0001)                   T
(PID.TID 0000.0001)     ;
(PID.TID 0000.0001) dumpFreq =   /* Model state write out interval ( s ). */
(PID.TID 0000.0001)                 0.000000000000000E+00
(PID.TID 0000.0001)     ;
(PID.TID 0000.0001) dumpInitAndLast= /* write out Initial & Last iter. model state */
(PID.TID 0000.0001)                   T
(PID.TID 0000.0001)     ;
(PID.TID 0000.0001) snapshot_mdsio =   /* Model IO flag. */
(PID.TID 0000.0001)                   F
(PID.TID 0000.0001)     ;
(PID.TID 0000.0001) snapshot_mnc =   /* Model IO flag. */
(PID.TID 0000.0001)                   T
(PID.TID 0000.0001)     ;
(PID.TID 0000.0001) monitorFreq =   /* Monitor output interval ( s ). */
(PID.TID 0000.0001)                 1.000000000000000E+00
(PID.TID 0000.0001)     ;
(PID.TID 0000.0001) monitorSelect = /* select group of variables to monitor */
(PID.TID 0000.0001)                       2
(PID.TID 0000.0001)     ;
(PID.TID 0000.0001) monitor_stdio =   /* Model IO flag. */
(PID.TID 0000.0001)                   T
(PID.TID 0000.0001)     ;
(PID.TID 0000.0001) monitor_mnc =   /* Model IO flag. */
(PID.TID 0000.0001)                   F
(PID.TID 0000.0001)     ;
(PID.TID 0000.0001) externForcingPeriod =   /* forcing period (s) */
(PID.TID 0000.0001)                 0.000000000000000E+00
(PID.TID 0000.0001)     ;
(PID.TID 0000.0001) externForcingCycle =   /* period of the cyle (s). */
(PID.TID 0000.0001)                 0.000000000000000E+00
(PID.TID 0000.0001)     ;
(PID.TID 0000.0001) tauThetaClimRelax =   /* relaxation time scale (s) */
(PID.TID 0000.0001)                 0.000000000000000E+00
(PID.TID 0000.0001)     ;
(PID.TID 0000.0001) tauSaltClimRelax =   /* relaxation time scale (s) */
(PID.TID 0000.0001)                 0.000000000000000E+00
(PID.TID 0000.0001)     ;
(PID.TID 0000.0001) latBandClimRelax =   /* max. Lat. where relaxation */
(PID.TID 0000.0001)                 1.800000000000000E+02
(PID.TID 0000.0001)     ;
(PID.TID 0000.0001) //
(PID.TID 0000.0001) // Gridding paramters ( PARM04 in namelist )
(PID.TID 0000.0001) //
(PID.TID 0000.0001) usingCartesianGrid = /* Cartesian coordinates flag ( True/False ) */
(PID.TID 0000.0001)                   F
(PID.TID 0000.0001)     ;
(PID.TID 0000.0001) usingCylindricalGrid = /* Cylindrical coordinates flag ( True/False ) */
(PID.TID 0000.0001)                   F
(PID.TID 0000.0001)     ;
(PID.TID 0000.0001) usingSphericalPolarGrid = /* Spherical coordinates flag ( True/False ) */
(PID.TID 0000.0001)                   T
(PID.TID 0000.0001)     ;
(PID.TID 0000.0001) usingCurvilinearGrid = /* Curvilinear coordinates flag ( True/False ) */
(PID.TID 0000.0001)                   F
(PID.TID 0000.0001)     ;
(PID.TID 0000.0001) selectSigmaCoord = /* Hybrid-Sigma Vert. Coordinate option */
(PID.TID 0000.0001)                       0
(PID.TID 0000.0001)     ;
(PID.TID 0000.0001) Ro_SeaLevel = /* r(1) ( units of r ==  m ) */
(PID.TID 0000.0001)                 0.000000000000000E+00
(PID.TID 0000.0001)     ;
(PID.TID 0000.0001) rSigmaBnd = /* r/sigma transition ( units of r ==  m ) */
(PID.TID 0000.0001)                 1.234567000000000E+05
(PID.TID 0000.0001)     ;
(PID.TID 0000.0001) rkSign =   /* index orientation relative to vertical coordinate */
(PID.TID 0000.0001)                -1.000000000000000E+00
(PID.TID 0000.0001)     ;
(PID.TID 0000.0001) gravitySign = /* gravity orientation relative to vertical coordinate */
(PID.TID 0000.0001)                -1.000000000000000E+00
(PID.TID 0000.0001)     ;
(PID.TID 0000.0001) mass2rUnit = /* convert mass per unit area [kg/m2] to r-units [m] */
(PID.TID 0000.0001)                 9.708737864077669E-04
(PID.TID 0000.0001)     ;
(PID.TID 0000.0001) rUnit2mass = /* convert r-units [m] to mass per unit area [kg/m2] */
(PID.TID 0000.0001)                 1.030000000000000E+03
(PID.TID 0000.0001)     ;
(PID.TID 0000.0001) drC =   /* C spacing ( units of r ) */
(PID.TID 0000.0001)                 1.500000000000000E+01,      /* K =  1 */
(PID.TID 0000.0001)    29 @  3.000000000000000E+01              /* K =  2: 30 */
(PID.TID 0000.0001)     ;
(PID.TID 0000.0001) drF =   /* W spacing ( units of r ) */
(PID.TID 0000.0001)    30 @  3.000000000000000E+01              /* K =  1: 30 */
(PID.TID 0000.0001)     ;
(PID.TID 0000.0001) delX = /* U spacing ( m - cartesian, degrees - spherical ) */
(PID.TID 0000.0001)    50 @  3.000000000000000E-01              /* I =  1: 50 */
(PID.TID 0000.0001)     ;
(PID.TID 0000.0001) delY = /* V spacing ( m - cartesian, degrees - spherical ) */
(PID.TID 0000.0001)   100 @  1.000000000000000E-01              /* J =  1:100 */
(PID.TID 0000.0001)     ;
(PID.TID 0000.0001) xgOrigin = /* X-axis origin of West  edge (cartesian: m, lat-lon: deg) */
(PID.TID 0000.0001)                 0.000000000000000E+00
(PID.TID 0000.0001)     ;
(PID.TID 0000.0001) ygOrigin = /* Y-axis origin of South edge (cartesian: m, lat-lon: deg) */
(PID.TID 0000.0001)                -8.000000000000000E+01
(PID.TID 0000.0001)     ;
(PID.TID 0000.0001) rSphere =  /* Radius ( ignored - cartesian, m - spherical ) */
(PID.TID 0000.0001)                 6.370000000000000E+06
(PID.TID 0000.0001)     ;
(PID.TID 0000.0001) deepAtmosphere = /* Deep/Shallow Atmosphere flag (True/False) */
(PID.TID 0000.0001)                   F
(PID.TID 0000.0001)     ;
(PID.TID 0000.0001) xC =  /* xC(:,1,:,1) : P-point X coord ( deg. or m if cartesian) */
(PID.TID 0000.0001)                 1.500000000000001E-01,      /* I =  1 */
(PID.TID 0000.0001)                 4.500000000000001E-01,      /* I =  2 */
(PID.TID 0000.0001)                 7.500000000000002E-01,      /* I =  3 */
(PID.TID 0000.0001)                 1.050000000000000E+00,      /* I =  4 */
(PID.TID 0000.0001)                 1.350000000000000E+00,      /* I =  5 */
(PID.TID 0000.0001)                 1.650000000000000E+00,      /* I =  6 */
(PID.TID 0000.0001)                 1.950000000000000E+00,      /* I =  7 */
(PID.TID 0000.0001)                 2.250000000000000E+00,      /* I =  8 */
(PID.TID 0000.0001)                 2.550000000000000E+00,      /* I =  9 */
(PID.TID 0000.0001)                 2.850000000000000E+00,      /* I = 10 */
(PID.TID 0000.0001)                 3.149999999999999E+00,      /* I = 11 */
(PID.TID 0000.0001)                 3.449999999999999E+00,      /* I = 12 */
(PID.TID 0000.0001)                 3.749999999999999E+00,      /* I = 13 */
(PID.TID 0000.0001)                 4.049999999999999E+00,      /* I = 14 */
(PID.TID 0000.0001)                 4.350000000000000E+00,      /* I = 15 */
(PID.TID 0000.0001)                 4.649999999999999E+00,      /* I = 16 */
(PID.TID 0000.0001)                 4.949999999999999E+00,      /* I = 17 */
(PID.TID 0000.0001)                 5.249999999999998E+00,      /* I = 18 */
(PID.TID 0000.0001)                 5.549999999999999E+00,      /* I = 19 */
(PID.TID 0000.0001)                 5.849999999999998E+00,      /* I = 20 */
(PID.TID 0000.0001)                 6.149999999999999E+00,      /* I = 21 */
(PID.TID 0000.0001)                 6.449999999999998E+00,      /* I = 22 */
(PID.TID 0000.0001)                 6.749999999999998E+00,      /* I = 23 */
(PID.TID 0000.0001)                 7.049999999999997E+00,      /* I = 24 */
(PID.TID 0000.0001)                 7.349999999999997E+00,      /* I = 25 */
(PID.TID 0000.0001)                 7.649999999999997E+00,      /* I = 26 */
(PID.TID 0000.0001)                 7.949999999999998E+00,      /* I = 27 */
(PID.TID 0000.0001)                 8.249999999999998E+00,      /* I = 28 */
(PID.TID 0000.0001)                 8.549999999999999E+00,      /* I = 29 */
(PID.TID 0000.0001)                 8.850000000000000E+00,      /* I = 30 */
(PID.TID 0000.0001)                 9.150000000000000E+00,      /* I = 31 */
(PID.TID 0000.0001)                 9.450000000000001E+00,      /* I = 32 */
(PID.TID 0000.0001)                 9.750000000000002E+00,      /* I = 33 */
(PID.TID 0000.0001)                 1.005000000000000E+01,      /* I = 34 */
(PID.TID 0000.0001)                 1.035000000000000E+01,      /* I = 35 */
(PID.TID 0000.0001)                 1.065000000000000E+01,      /* I = 36 */
(PID.TID 0000.0001)                 1.095000000000001E+01,      /* I = 37 */
(PID.TID 0000.0001)                 1.125000000000001E+01,      /* I = 38 */
(PID.TID 0000.0001)                 1.155000000000000E+01,      /* I = 39 */
(PID.TID 0000.0001)                 1.185000000000001E+01,      /* I = 40 */
(PID.TID 0000.0001)                 1.215000000000001E+01,      /* I = 41 */
(PID.TID 0000.0001)                 1.245000000000001E+01,      /* I = 42 */
(PID.TID 0000.0001)                 1.275000000000001E+01,      /* I = 43 */
(PID.TID 0000.0001)                 1.305000000000001E+01,      /* I = 44 */
(PID.TID 0000.0001)                 1.335000000000001E+01,      /* I = 45 */
(PID.TID 0000.0001)                 1.365000000000001E+01,      /* I = 46 */
(PID.TID 0000.0001)                 1.395000000000001E+01,      /* I = 47 */
(PID.TID 0000.0001)                 1.425000000000001E+01,      /* I = 48 */
(PID.TID 0000.0001)                 1.455000000000001E+01,      /* I = 49 */
(PID.TID 0000.0001)                 1.485000000000001E+01       /* I = 50 */
(PID.TID 0000.0001)     ;
(PID.TID 0000.0001) yC =  /* yC(1,:,1,:) : P-point Y coord ( deg. or m if cartesian) */
(PID.TID 0000.0001)                -7.995000000000000E+01,      /* J =  1 */
(PID.TID 0000.0001)                -7.985000000000001E+01,      /* J =  2 */
(PID.TID 0000.0001)                -7.975000000000001E+01,      /* J =  3 */
(PID.TID 0000.0001)      . . .
(PID.TID 0000.0001)                -7.775000000000013E+01,      /* J = 23 */
(PID.TID 0000.0001)                -7.765000000000013E+01,      /* J = 24 */
(PID.TID 0000.0001)                -7.755000000000014E+01,      /* J = 25 */
(PID.TID 0000.0001)                -7.745000000000014E+01,      /* J = 26 */
(PID.TID 0000.0001)                -7.735000000000015E+01,      /* J = 27 */
(PID.TID 0000.0001)                -7.725000000000016E+01,      /* J = 28 */
(PID.TID 0000.0001)      . . .
(PID.TID 0000.0001)                -7.525000000000027E+01,      /* J = 48 */
(PID.TID 0000.0001)                -7.515000000000028E+01,      /* J = 49 */
(PID.TID 0000.0001)                -7.505000000000028E+01,      /* J = 50 */
(PID.TID 0000.0001)                -7.495000000000029E+01,      /* J = 51 */
(PID.TID 0000.0001)                -7.485000000000029E+01,      /* J = 52 */
(PID.TID 0000.0001)                -7.475000000000030E+01,      /* J = 53 */
(PID.TID 0000.0001)      . . .
(PID.TID 0000.0001)                -7.275000000000041E+01,      /* J = 73 */
(PID.TID 0000.0001)                -7.265000000000042E+01,      /* J = 74 */
(PID.TID 0000.0001)                -7.255000000000042E+01,      /* J = 75 */
(PID.TID 0000.0001)                -7.245000000000043E+01,      /* J = 76 */
(PID.TID 0000.0001)                -7.235000000000043E+01,      /* J = 77 */
(PID.TID 0000.0001)                -7.225000000000044E+01,      /* J = 78 */
(PID.TID 0000.0001)      . . .
(PID.TID 0000.0001)                -7.025000000000055E+01,      /* J = 98 */
(PID.TID 0000.0001)                -7.015000000000056E+01,      /* J = 99 */
(PID.TID 0000.0001)                -7.005000000000057E+01       /* J =100 */
(PID.TID 0000.0001)     ;
(PID.TID 0000.0001) rcoord = /* P-point R coordinate (  units of r ) */
(PID.TID 0000.0001)                -1.500000000000000E+01,      /* K =  1 */
(PID.TID 0000.0001)                -4.500000000000000E+01,      /* K =  2 */
(PID.TID 0000.0001)                -7.500000000000000E+01,      /* K =  3 */
(PID.TID 0000.0001)                -1.050000000000000E+02,      /* K =  4 */
(PID.TID 0000.0001)                -1.350000000000000E+02,      /* K =  5 */
(PID.TID 0000.0001)                -1.650000000000000E+02,      /* K =  6 */
(PID.TID 0000.0001)                -1.950000000000000E+02,      /* K =  7 */
(PID.TID 0000.0001)                -2.250000000000000E+02,      /* K =  8 */
(PID.TID 0000.0001)                -2.550000000000000E+02,      /* K =  9 */
(PID.TID 0000.0001)                -2.850000000000000E+02,      /* K = 10 */
(PID.TID 0000.0001)                -3.150000000000000E+02,      /* K = 11 */
(PID.TID 0000.0001)                -3.450000000000000E+02,      /* K = 12 */
(PID.TID 0000.0001)                -3.750000000000000E+02,      /* K = 13 */
(PID.TID 0000.0001)                -4.050000000000000E+02,      /* K = 14 */
(PID.TID 0000.0001)                -4.350000000000000E+02,      /* K = 15 */
(PID.TID 0000.0001)                -4.650000000000000E+02,      /* K = 16 */
(PID.TID 0000.0001)                -4.950000000000000E+02,      /* K = 17 */
(PID.TID 0000.0001)                -5.250000000000000E+02,      /* K = 18 */
(PID.TID 0000.0001)                -5.550000000000000E+02,      /* K = 19 */
(PID.TID 0000.0001)                -5.850000000000000E+02,      /* K = 20 */
(PID.TID 0000.0001)                -6.150000000000000E+02,      /* K = 21 */
(PID.TID 0000.0001)                -6.450000000000000E+02,      /* K = 22 */
(PID.TID 0000.0001)                -6.750000000000000E+02,      /* K = 23 */
(PID.TID 0000.0001)                -7.050000000000000E+02,      /* K = 24 */
(PID.TID 0000.0001)                -7.350000000000000E+02,      /* K = 25 */
(PID.TID 0000.0001)                -7.650000000000000E+02,      /* K = 26 */
(PID.TID 0000.0001)                -7.950000000000000E+02,      /* K = 27 */
(PID.TID 0000.0001)                -8.250000000000000E+02,      /* K = 28 */
(PID.TID 0000.0001)                -8.550000000000000E+02,      /* K = 29 */
(PID.TID 0000.0001)                -8.850000000000000E+02       /* K = 30 */
(PID.TID 0000.0001)     ;
(PID.TID 0000.0001) rF =   /* W-Interf. R coordinate (  units of r ) */
(PID.TID 0000.0001)                 0.000000000000000E+00,      /* K =  1 */
(PID.TID 0000.0001)                -3.000000000000000E+01,      /* K =  2 */
(PID.TID 0000.0001)                -6.000000000000000E+01,      /* K =  3 */
(PID.TID 0000.0001)                -9.000000000000000E+01,      /* K =  4 */
(PID.TID 0000.0001)                -1.200000000000000E+02,      /* K =  5 */
(PID.TID 0000.0001)                -1.500000000000000E+02,      /* K =  6 */
(PID.TID 0000.0001)                -1.800000000000000E+02,      /* K =  7 */
(PID.TID 0000.0001)                -2.100000000000000E+02,      /* K =  8 */
(PID.TID 0000.0001)                -2.400000000000000E+02,      /* K =  9 */
(PID.TID 0000.0001)                -2.700000000000000E+02,      /* K = 10 */
(PID.TID 0000.0001)                -3.000000000000000E+02,      /* K = 11 */
(PID.TID 0000.0001)                -3.300000000000000E+02,      /* K = 12 */
(PID.TID 0000.0001)                -3.600000000000000E+02,      /* K = 13 */
(PID.TID 0000.0001)                -3.900000000000000E+02,      /* K = 14 */
(PID.TID 0000.0001)                -4.200000000000000E+02,      /* K = 15 */
(PID.TID 0000.0001)                -4.500000000000000E+02,      /* K = 16 */
(PID.TID 0000.0001)                -4.800000000000000E+02,      /* K = 17 */
(PID.TID 0000.0001)                -5.100000000000000E+02,      /* K = 18 */
(PID.TID 0000.0001)                -5.400000000000000E+02,      /* K = 19 */
(PID.TID 0000.0001)                -5.700000000000000E+02,      /* K = 20 */
(PID.TID 0000.0001)                -6.000000000000000E+02,      /* K = 21 */
(PID.TID 0000.0001)                -6.300000000000000E+02,      /* K = 22 */
(PID.TID 0000.0001)                -6.600000000000000E+02,      /* K = 23 */
(PID.TID 0000.0001)                -6.900000000000000E+02,      /* K = 24 */
(PID.TID 0000.0001)                -7.200000000000000E+02,      /* K = 25 */
(PID.TID 0000.0001)                -7.500000000000000E+02,      /* K = 26 */
(PID.TID 0000.0001)                -7.800000000000000E+02,      /* K = 27 */
(PID.TID 0000.0001)                -8.100000000000000E+02,      /* K = 28 */
(PID.TID 0000.0001)                -8.400000000000000E+02,      /* K = 29 */
(PID.TID 0000.0001)                -8.700000000000000E+02,      /* K = 30 */
(PID.TID 0000.0001)                -9.000000000000000E+02       /* K = 31 */
(PID.TID 0000.0001)     ;
(PID.TID 0000.0001) deepFacC = /* deep-model grid factor @ cell-Center (-) */
(PID.TID 0000.0001)    30 @  1.000000000000000E+00              /* K =  1: 30 */
(PID.TID 0000.0001)     ;
(PID.TID 0000.0001) deepFacF = /* deep-model grid factor @ W-Interface (-) */
(PID.TID 0000.0001)    31 @  1.000000000000000E+00              /* K =  1: 31 */
(PID.TID 0000.0001)     ;
(PID.TID 0000.0001) rVel2wUnit = /* convert units: rVel -> wSpeed (=1 if z-coord)*/
(PID.TID 0000.0001)    31 @  1.000000000000000E+00              /* K =  1: 31 */
(PID.TID 0000.0001)     ;
(PID.TID 0000.0001) wUnit2rVel = /* convert units: wSpeed -> rVel (=1 if z-coord)*/
(PID.TID 0000.0001)    31 @  1.000000000000000E+00              /* K =  1: 31 */
(PID.TID 0000.0001)     ;
(PID.TID 0000.0001) dBdrRef = /* Vertical grad. of reference buoyancy [(m/s/r)^2] */
(PID.TID 0000.0001)    30 @  0.000000000000000E+00              /* K =  1: 30 */
(PID.TID 0000.0001)     ;
(PID.TID 0000.0001) rotateGrid = /* use rotated grid ( True/False ) */
(PID.TID 0000.0001)                   F
(PID.TID 0000.0001)     ;
(PID.TID 0000.0001) phiEuler = /* Euler angle, rotation about original z-coordinate [rad] */
(PID.TID 0000.0001)                 0.000000000000000E+00
(PID.TID 0000.0001)     ;
(PID.TID 0000.0001) thetaEuler = /* Euler angle, rotation about new x-coordinate [rad] */
(PID.TID 0000.0001)                 0.000000000000000E+00
(PID.TID 0000.0001)     ;
(PID.TID 0000.0001) psiEuler = /* Euler angle, rotation about new z-coordinate [rad] */
(PID.TID 0000.0001)                 0.000000000000000E+00
(PID.TID 0000.0001)     ;
(PID.TID 0000.0001) dxF =  /* dxF(:,1,:,1) ( units: m ) */
(PID.TID 0000.0001)    50 @  5.820391490558872E+03              /* I =  1: 50 */
(PID.TID 0000.0001)     ;
(PID.TID 0000.0001) dxF =  /* dxF(1,:,1,:) ( units: m ) */
(PID.TID 0000.0001)                 5.820391490558872E+03,      /* J =  1 */
(PID.TID 0000.0001)                 5.877701765291692E+03,      /* J =  2 */
(PID.TID 0000.0001)                 5.934994135525598E+03,      /* J =  3 */
(PID.TID 0000.0001)      . . .
(PID.TID 0000.0001)                 7.076813247621209E+03,      /* J = 23 */
(PID.TID 0000.0001)                 7.133689397375063E+03,      /* J = 24 */
(PID.TID 0000.0001)                 7.190543816673855E+03,      /* J = 25 */
(PID.TID 0000.0001)                 7.247376332329164E+03,      /* J = 26 */
(PID.TID 0000.0001)                 7.304186771219292E+03,      /* J = 27 */
(PID.TID 0000.0001)                 7.360974960289787E+03,      /* J = 28 */
(PID.TID 0000.0001)      . . .
(PID.TID 0000.0001)                 8.491800393599013E+03,      /* J = 48 */
(PID.TID 0000.0001)                 8.548081485571185E+03,      /* J = 49 */
(PID.TID 0000.0001)                 8.604336538604706E+03,      /* J = 50 */
(PID.TID 0000.0001)                 8.660565381336924E+03,      /* J = 51 */
(PID.TID 0000.0001)                 8.716767842485036E+03,      /* J = 52 */
(PID.TID 0000.0001)                 8.772943750846600E+03,      /* J = 53 */
(PID.TID 0000.0001)      . . .
(PID.TID 0000.0001)                 9.890622914885218E+03,      /* J = 73 */
(PID.TID 0000.0001)                 9.946201814818334E+03,      /* J = 74 */
(PID.TID 0000.0001)                 1.000175041689580E+04,      /* J = 75 */
(PID.TID 0000.0001)                 1.005726855190695E+04,      /* J = 76 */
(PID.TID 0000.0001)                 1.011275605073392E+04,      /* J = 77 */
(PID.TID 0000.0001)                 1.016821274435215E+04,      /* J = 78 */
(PID.TID 0000.0001)      . . .
(PID.TID 0000.0001)                 1.127061807330668E+04,      /* J = 98 */
(PID.TID 0000.0001)                 1.132538898360582E+04,      /* J = 99 */
(PID.TID 0000.0001)                 1.138012539480601E+04       /* J =100 */
(PID.TID 0000.0001)     ;
(PID.TID 0000.0001) dyF =  /* dyF(:,1,:,1) ( units: m ) */
(PID.TID 0000.0001)    50 @  1.111774733520388E+04              /* I =  1: 50 */
(PID.TID 0000.0001)     ;
(PID.TID 0000.0001) dyF =  /* dyF(1,:,1,:) ( units: m ) */
(PID.TID 0000.0001)   100 @  1.111774733520388E+04              /* J =  1:100 */
(PID.TID 0000.0001)     ;
(PID.TID 0000.0001) dxG =  /* dxG(:,1,:,1) ( units: m ) */
(PID.TID 0000.0001)    50 @  5.791729693558576E+03              /* I =  1: 50 */
(PID.TID 0000.0001)     ;
(PID.TID 0000.0001) dxG =  /* dxG(1,:,1,:) ( units: m ) */
(PID.TID 0000.0001)                 5.791729693558576E+03,      /* J =  1 */
(PID.TID 0000.0001)                 5.849048855077854E+03,      /* J =  2 */
(PID.TID 0000.0001)                 5.906350199379949E+03,      /* J =  3 */
(PID.TID 0000.0001)      . . .
(PID.TID 0000.0001)                 7.048367077963129E+03,      /* J = 23 */
(PID.TID 0000.0001)                 7.105254027978149E+03,      /* J = 24 */
(PID.TID 0000.0001)                 7.162119334157175E+03,      /* J = 25 */
(PID.TID 0000.0001)                 7.218962823278620E+03,      /* J = 26 */
(PID.TID 0000.0001)                 7.275784322187360E+03,      /* J = 27 */
(PID.TID 0000.0001)                 7.332583657795253E+03,      /* J = 28 */
(PID.TID 0000.0001)      . . .
(PID.TID 0000.0001)                 8.463650136583461E+03,      /* J = 48 */
(PID.TID 0000.0001)                 8.519944183739159E+03,      /* J = 49 */
(PID.TID 0000.0001)                 8.576212277667308E+03,      /* J = 50 */
(PID.TID 0000.0001)                 8.632454246965530E+03,      /* J = 51 */
(PID.TID 0000.0001)                 8.688669920311038E+03,      /* J = 52 */
(PID.TID 0000.0001)                 8.744859126461139E+03,      /* J = 53 */
(PID.TID 0000.0001)      . . .
(PID.TID 0000.0001)                 9.862822156126382E+03,      /* J = 73 */
(PID.TID 0000.0001)                 9.918416141504455E+03,      /* J = 74 */
(PID.TID 0000.0001)                 9.973979913666863E+03,      /* J = 75 */
(PID.TID 0000.0001)                 1.002951330335672E+04,      /* J = 76 */
(PID.TID 0000.0001)                 1.008501614140969E+04,      /* J = 77 */
(PID.TID 0000.0001)                 1.014048825875450E+04,      /* J = 78 */
(PID.TID 0000.0001)      . . .
(PID.TID 0000.0001)                 1.124321973312895E+04,      /* J = 98 */
(PID.TID 0000.0001)                 1.129800783041847E+04,      /* J = 99 */
(PID.TID 0000.0001)                 1.135276151201679E+04       /* J =100 */
(PID.TID 0000.0001)     ;
(PID.TID 0000.0001) dyG =  /* dyG(:,1,:,1) ( units: m ) */
(PID.TID 0000.0001)    50 @  1.111774733520388E+04              /* I =  1: 50 */
(PID.TID 0000.0001)     ;
(PID.TID 0000.0001) dyG =  /* dyG(1,:,1,:) ( units: m ) */
(PID.TID 0000.0001)   100 @  1.111774733520388E+04              /* J =  1:100 */
(PID.TID 0000.0001)     ;
(PID.TID 0000.0001) dxC =  /* dxC(:,1,:,1) ( units: m ) */
(PID.TID 0000.0001)    50 @  5.820391490558872E+03              /* I =  1: 50 */
(PID.TID 0000.0001)     ;
(PID.TID 0000.0001) dxC =  /* dxC(1,:,1,:) ( units: m ) */
(PID.TID 0000.0001)                 5.820391490558872E+03,      /* J =  1 */
(PID.TID 0000.0001)                 5.877701765291692E+03,      /* J =  2 */
(PID.TID 0000.0001)                 5.934994135525598E+03,      /* J =  3 */
(PID.TID 0000.0001)      . . .
(PID.TID 0000.0001)                 7.076813247621209E+03,      /* J = 23 */
(PID.TID 0000.0001)                 7.133689397375063E+03,      /* J = 24 */
(PID.TID 0000.0001)                 7.190543816673855E+03,      /* J = 25 */
(PID.TID 0000.0001)                 7.247376332329164E+03,      /* J = 26 */
(PID.TID 0000.0001)                 7.304186771219292E+03,      /* J = 27 */
(PID.TID 0000.0001)                 7.360974960289787E+03,      /* J = 28 */
(PID.TID 0000.0001)      . . .
(PID.TID 0000.0001)                 8.491800393599013E+03,      /* J = 48 */
(PID.TID 0000.0001)                 8.548081485571185E+03,      /* J = 49 */
(PID.TID 0000.0001)                 8.604336538604706E+03,      /* J = 50 */
(PID.TID 0000.0001)                 8.660565381336924E+03,      /* J = 51 */
(PID.TID 0000.0001)                 8.716767842485036E+03,      /* J = 52 */
(PID.TID 0000.0001)                 8.772943750846600E+03,      /* J = 53 */
(PID.TID 0000.0001)      . . .
(PID.TID 0000.0001)                 9.890622914885218E+03,      /* J = 73 */
(PID.TID 0000.0001)                 9.946201814818334E+03,      /* J = 74 */
(PID.TID 0000.0001)                 1.000175041689580E+04,      /* J = 75 */
(PID.TID 0000.0001)                 1.005726855190695E+04,      /* J = 76 */
(PID.TID 0000.0001)                 1.011275605073392E+04,      /* J = 77 */
(PID.TID 0000.0001)                 1.016821274435215E+04,      /* J = 78 */
(PID.TID 0000.0001)      . . .
(PID.TID 0000.0001)                 1.127061807330668E+04,      /* J = 98 */
(PID.TID 0000.0001)                 1.132538898360582E+04,      /* J = 99 */
(PID.TID 0000.0001)                 1.138012539480601E+04       /* J =100 */
(PID.TID 0000.0001)     ;
(PID.TID 0000.0001) dyC =  /* dyC(:,1,:,1) ( units: m ) */
(PID.TID 0000.0001)    50 @  1.111774733520388E+04              /* I =  1: 50 */
(PID.TID 0000.0001)     ;
(PID.TID 0000.0001) dyC =  /* dyC(1,:,1,:) ( units: m ) */
(PID.TID 0000.0001)   100 @  1.111774733520388E+04              /* J =  1:100 */
(PID.TID 0000.0001)     ;
(PID.TID 0000.0001) dxV =  /* dxV(:,1,:,1) ( units: m ) */
(PID.TID 0000.0001)    50 @  5.791729693558576E+03              /* I =  1: 50 */
(PID.TID 0000.0001)     ;
(PID.TID 0000.0001) dxV =  /* dxV(1,:,1,:) ( units: m ) */
(PID.TID 0000.0001)                 5.791729693558576E+03,      /* J =  1 */
(PID.TID 0000.0001)                 5.849048855077854E+03,      /* J =  2 */
(PID.TID 0000.0001)                 5.906350199379949E+03,      /* J =  3 */
(PID.TID 0000.0001)      . . .
(PID.TID 0000.0001)                 7.048367077963129E+03,      /* J = 23 */
(PID.TID 0000.0001)                 7.105254027978149E+03,      /* J = 24 */
(PID.TID 0000.0001)                 7.162119334157175E+03,      /* J = 25 */
(PID.TID 0000.0001)                 7.218962823278620E+03,      /* J = 26 */
(PID.TID 0000.0001)                 7.275784322187360E+03,      /* J = 27 */
(PID.TID 0000.0001)                 7.332583657795253E+03,      /* J = 28 */
(PID.TID 0000.0001)      . . .
(PID.TID 0000.0001)                 8.463650136583461E+03,      /* J = 48 */
(PID.TID 0000.0001)                 8.519944183739159E+03,      /* J = 49 */
(PID.TID 0000.0001)                 8.576212277667308E+03,      /* J = 50 */
(PID.TID 0000.0001)                 8.632454246965530E+03,      /* J = 51 */
(PID.TID 0000.0001)                 8.688669920311038E+03,      /* J = 52 */
(PID.TID 0000.0001)                 8.744859126461139E+03,      /* J = 53 */
(PID.TID 0000.0001)      . . .
(PID.TID 0000.0001)                 9.862822156126382E+03,      /* J = 73 */
(PID.TID 0000.0001)                 9.918416141504455E+03,      /* J = 74 */
(PID.TID 0000.0001)                 9.973979913666863E+03,      /* J = 75 */
(PID.TID 0000.0001)                 1.002951330335672E+04,      /* J = 76 */
(PID.TID 0000.0001)                 1.008501614140969E+04,      /* J = 77 */
(PID.TID 0000.0001)                 1.014048825875450E+04,      /* J = 78 */
(PID.TID 0000.0001)      . . .
(PID.TID 0000.0001)                 1.124321973312895E+04,      /* J = 98 */
(PID.TID 0000.0001)                 1.129800783041847E+04,      /* J = 99 */
(PID.TID 0000.0001)                 1.135276151201679E+04       /* J =100 */
(PID.TID 0000.0001)     ;
(PID.TID 0000.0001) dyU =  /* dyU(:,1,:,1) ( units: m ) */
(PID.TID 0000.0001)    50 @  1.111774733520388E+04              /* I =  1: 50 */
(PID.TID 0000.0001)     ;
(PID.TID 0000.0001) dyU =  /* dyU(1,:,1,:) ( units: m ) */
(PID.TID 0000.0001)   100 @  1.111774733520388E+04              /* J =  1:100 */
(PID.TID 0000.0001)     ;
(PID.TID 0000.0001) rA  =  /* rA (:,1,:,1) ( units: m^2 ) */
(PID.TID 0000.0001)    50 @  6.470963377080289E+07              /* I =  1: 50 */
(PID.TID 0000.0001)     ;
(PID.TID 0000.0001) rA  =  /* rA (1,:,1,:) ( units: m^2 ) */
(PID.TID 0000.0001)                 6.470963377080289E+07,      /* J =  1 */
(PID.TID 0000.0001)                 6.534679484410104E+07,      /* J =  2 */
(PID.TID 0000.0001)                 6.598375685977945E+07,      /* J =  3 */
(PID.TID 0000.0001)      . . .
(PID.TID 0000.0001)                 7.867821163932665E+07,      /* J = 23 */
(PID.TID 0000.0001)                 7.931054622142966E+07,      /* J = 24 */
(PID.TID 0000.0001)                 7.994263920984067E+07,      /* J = 25 */
(PID.TID 0000.0001)                 8.057448867913349E+07,      /* J = 26 */
(PID.TID 0000.0001)                 8.120609270456599E+07,      /* J = 27 */
(PID.TID 0000.0001)                 8.183744936212724E+07,      /* J = 28 */
(PID.TID 0000.0001)      . . .
(PID.TID 0000.0001)                 9.440967921416211E+07,      /* J = 48 */
(PID.TID 0000.0001)                 9.503539809503193E+07,      /* J = 49 */
(PID.TID 0000.0001)                 9.566082748163140E+07,      /* J = 50 */
(PID.TID 0000.0001)                 9.628596546870193E+07,      /* J = 51 */
(PID.TID 0000.0001)                 9.691081015209354E+07,      /* J = 52 */
(PID.TID 0000.0001)                 9.753535962826957E+07,      /* J = 53 */
(PID.TID 0000.0001)      . . .
(PID.TID 0000.0001)                 1.099614325987181E+08,      /* J = 73 */
(PID.TID 0000.0001)                 1.105793446869293E+08,      /* J = 74 */
(PID.TID 0000.0001)                 1.111969199312560E+08,      /* J = 75 */
(PID.TID 0000.0001)                 1.118141564504991E+08,      /* J = 76 */
(PID.TID 0000.0001)                 1.124310523644033E+08,      /* J = 77 */
(PID.TID 0000.0001)                 1.130476057938687E+08,      /* J = 78 */
(PID.TID 0000.0001)      . . .
(PID.TID 0000.0001)                 1.253038681465364E+08,      /* J = 98 */
(PID.TID 0000.0001)                 1.259127972112936E+08,      /* J = 99 */
(PID.TID 0000.0001)                 1.265213427237870E+08       /* J =100 */
(PID.TID 0000.0001)     ;
(PID.TID 0000.0001) rAw =  /* rAw(:,1,:,1) ( units: m^2 ) */
(PID.TID 0000.0001)    50 @  6.470963377080289E+07              /* I =  1: 50 */
(PID.TID 0000.0001)     ;
(PID.TID 0000.0001) rAw =  /* rAw(1,:,1,:) ( units: m^2 ) */
(PID.TID 0000.0001)                 6.470963377080289E+07,      /* J =  1 */
(PID.TID 0000.0001)                 6.534679484410104E+07,      /* J =  2 */
(PID.TID 0000.0001)                 6.598375685977945E+07,      /* J =  3 */
(PID.TID 0000.0001)      . . .
(PID.TID 0000.0001)                 7.867821163932665E+07,      /* J = 23 */
(PID.TID 0000.0001)                 7.931054622142966E+07,      /* J = 24 */
(PID.TID 0000.0001)                 7.994263920984067E+07,      /* J = 25 */
(PID.TID 0000.0001)                 8.057448867913349E+07,      /* J = 26 */
(PID.TID 0000.0001)                 8.120609270456599E+07,      /* J = 27 */
(PID.TID 0000.0001)                 8.183744936212724E+07,      /* J = 28 */
(PID.TID 0000.0001)      . . .
(PID.TID 0000.0001)                 9.440967921416211E+07,      /* J = 48 */
(PID.TID 0000.0001)                 9.503539809503193E+07,      /* J = 49 */
(PID.TID 0000.0001)                 9.566082748163140E+07,      /* J = 50 */
(PID.TID 0000.0001)                 9.628596546870193E+07,      /* J = 51 */
(PID.TID 0000.0001)                 9.691081015209354E+07,      /* J = 52 */
(PID.TID 0000.0001)                 9.753535962826957E+07,      /* J = 53 */
(PID.TID 0000.0001)      . . .
(PID.TID 0000.0001)                 1.099614325987181E+08,      /* J = 73 */
(PID.TID 0000.0001)                 1.105793446869293E+08,      /* J = 74 */
(PID.TID 0000.0001)                 1.111969199312560E+08,      /* J = 75 */
(PID.TID 0000.0001)                 1.118141564504991E+08,      /* J = 76 */
(PID.TID 0000.0001)                 1.124310523644033E+08,      /* J = 77 */
(PID.TID 0000.0001)                 1.130476057938687E+08,      /* J = 78 */
(PID.TID 0000.0001)      . . .
(PID.TID 0000.0001)                 1.253038681465364E+08,      /* J = 98 */
(PID.TID 0000.0001)                 1.259127972112936E+08,      /* J = 99 */
(PID.TID 0000.0001)                 1.265213427237870E+08       /* J =100 */
(PID.TID 0000.0001)     ;
(PID.TID 0000.0001) rAs =  /* rAs(:,1,:,1) ( units: m^2 ) */
(PID.TID 0000.0001)    50 @  6.439097919401864E+07              /* I =  1: 50 */
(PID.TID 0000.0001)     ;
(PID.TID 0000.0001) rAs =  /* rAs(1,:,1,:) ( units: m^2 ) */
(PID.TID 0000.0001)                 6.439097919401864E+07,      /* J =  1 */
(PID.TID 0000.0001)                 6.502823906837179E+07,      /* J =  2 */
(PID.TID 0000.0001)                 6.566530085543716E+07,      /* J =  3 */
(PID.TID 0000.0001)      . . .
(PID.TID 0000.0001)                 7.836195435256335E+07,      /* J = 23 */
(PID.TID 0000.0001)                 7.899440900921808E+07,      /* J = 24 */
(PID.TID 0000.0001)                 7.962662303520055E+07,      /* J = 25 */
(PID.TID 0000.0001)                 8.025859450470714E+07,      /* J = 26 */
(PID.TID 0000.0001)                 8.089032149259475E+07,      /* J = 27 */
(PID.TID 0000.0001)                 8.152180207452223E+07,      /* J = 28 */
(PID.TID 0000.0001)      . . .
(PID.TID 0000.0001)                 9.409671180895932E+07,      /* J = 48 */
(PID.TID 0000.0001)                 9.472257472228888E+07,      /* J = 49 */
(PID.TID 0000.0001)                 9.534814909420149E+07,      /* J = 50 */
(PID.TID 0000.0001)                 9.597343301913190E+07,      /* J = 51 */
(PID.TID 0000.0001)                 9.659842459236403E+07,      /* J = 52 */
(PID.TID 0000.0001)                 9.722312190998378E+07,      /* J = 53 */
(PID.TID 0000.0001)      . . .
(PID.TID 0000.0001)                 1.096523508263446E+08,      /* J = 73 */
(PID.TID 0000.0001)                 1.102704306306916E+08,      /* J = 74 */
(PID.TID 0000.0001)                 1.108881745321664E+08,      /* J = 75 */
(PID.TID 0000.0001)                 1.115055806490511E+08,      /* J = 76 */
(PID.TID 0000.0001)                 1.121226471005947E+08,      /* J = 77 */
(PID.TID 0000.0001)                 1.127393720071080E+08,      /* J = 78 */
(PID.TID 0000.0001)      . . .
(PID.TID 0000.0001)                 1.249992603617116E+08,      /* J = 98 */
(PID.TID 0000.0001)                 1.256083805070198E+08,      /* J = 99 */
(PID.TID 0000.0001)                 1.262171180274426E+08       /* J =100 */
(PID.TID 0000.0001)     ;
(PID.TID 0000.0001) globalArea = /* Integrated horizontal Area (m^2) */
(PID.TID 0000.0001)                 4.665024516720103E+11
(PID.TID 0000.0001)     ;
(PID.TID 0000.0001) // =======================================================
(PID.TID 0000.0001) // End of Model config. summary
(PID.TID 0000.0001) // =======================================================
(PID.TID 0000.0001) 
(PID.TID 0000.0001) == Packages configuration : Check & print summary ==
(PID.TID 0000.0001) 
(PID.TID 0000.0001) SHELFICE_CHECK: #define ALLOW_SHELFICE
(PID.TID 0000.0001) GAD_CHECK: #define ALLOW_GENERIC_ADVDIFF
(PID.TID 0000.0001) // =======================================================
(PID.TID 0000.0001) // Check Model config. (CONFIG_CHECK):
(PID.TID 0000.0001) // CONFIG_CHECK : Normal End
(PID.TID 0000.0001) // =======================================================
(PID.TID 0000.0001) 
(PID.TID 0000.0001) Start initial hydrostatic pressure computation
(PID.TID 0000.0001) Pressure is predetermined for buoyancyRelation OCEANIC
(PID.TID 0000.0001) 
(PID.TID 0000.0001) // =======================================================
(PID.TID 0000.0001) // Model current state
(PID.TID 0000.0001) // =======================================================
(PID.TID 0000.0001) 
(PID.TID 0000.0001) // =======================================================
(PID.TID 0000.0001) // Begin MONITOR dynamic field statistics
(PID.TID 0000.0001) // =======================================================
(PID.TID 0000.0001) %MON time_tsnumber                =                     0
(PID.TID 0000.0001) %MON time_secondsf                =   0.0000000000000E+00
(PID.TID 0000.0001) %MON dynstat_eta_max              =   0.0000000000000E+00
(PID.TID 0000.0001) %MON dynstat_eta_min              =   0.0000000000000E+00
(PID.TID 0000.0001) %MON dynstat_eta_mean             =   0.0000000000000E+00
(PID.TID 0000.0001) %MON dynstat_eta_sd               =   0.0000000000000E+00
(PID.TID 0000.0001) %MON dynstat_eta_del2             =   0.0000000000000E+00
(PID.TID 0000.0001) %MON dynstat_uvel_max             =   0.0000000000000E+00
(PID.TID 0000.0001) %MON dynstat_uvel_min             =   0.0000000000000E+00
(PID.TID 0000.0001) %MON dynstat_uvel_mean            =   0.0000000000000E+00
(PID.TID 0000.0001) %MON dynstat_uvel_sd              =   0.0000000000000E+00
(PID.TID 0000.0001) %MON dynstat_uvel_del2            =   0.0000000000000E+00
(PID.TID 0000.0001) %MON dynstat_vvel_max             =   0.0000000000000E+00
(PID.TID 0000.0001) %MON dynstat_vvel_min             =   0.0000000000000E+00
(PID.TID 0000.0001) %MON dynstat_vvel_mean            =   0.0000000000000E+00
(PID.TID 0000.0001) %MON dynstat_vvel_sd              =   0.0000000000000E+00
(PID.TID 0000.0001) %MON dynstat_vvel_del2            =   0.0000000000000E+00
(PID.TID 0000.0001) %MON dynstat_wvel_max             =  -0.0000000000000E+00
(PID.TID 0000.0001) %MON dynstat_wvel_min             =  -0.0000000000000E+00
(PID.TID 0000.0001) %MON dynstat_wvel_mean            =   0.0000000000000E+00
(PID.TID 0000.0001) %MON dynstat_wvel_sd              =   0.0000000000000E+00
(PID.TID 0000.0001) %MON dynstat_wvel_del2            =   0.0000000000000E+00
(PID.TID 0000.0001) %MON dynstat_theta_max            =  -1.9000000000000E+00
(PID.TID 0000.0001) %MON dynstat_theta_min            =  -1.9000000000000E+00
(PID.TID 0000.0001) %MON dynstat_theta_mean           =  -1.9000000000000E+00
(PID.TID 0000.0001) %MON dynstat_theta_sd             =   0.0000000000000E+00
(PID.TID 0000.0001) %MON dynstat_theta_del2           =   0.0000000000000E+00
(PID.TID 0000.0001) %MON dynstat_salt_max             =   3.4400000000000E+01
(PID.TID 0000.0001) %MON dynstat_salt_min             =   3.4400000000000E+01
(PID.TID 0000.0001) %MON dynstat_salt_mean            =   3.4400000000002E+01
(PID.TID 0000.0001) %MON dynstat_salt_sd              =   2.0961010704923E-12
(PID.TID 0000.0001) %MON dynstat_salt_del2            =   0.0000000000000E+00
(PID.TID 0000.0001) %MON advcfl_uvel_max              =   0.0000000000000E+00
(PID.TID 0000.0001) %MON advcfl_vvel_max              =   0.0000000000000E+00
(PID.TID 0000.0001) %MON advcfl_wvel_max              =   0.0000000000000E+00
(PID.TID 0000.0001) %MON advcfl_W_hf_max              =   0.0000000000000E+00
(PID.TID 0000.0001) %MON pe_b_mean                    =   0.0000000000000E+00
(PID.TID 0000.0001) %MON ke_max                       =   0.0000000000000E+00
(PID.TID 0000.0001) %MON ke_mean                      =   0.0000000000000E+00
(PID.TID 0000.0001) %MON ke_vol                       =   2.9241705273104E+14
(PID.TID 0000.0001) %MON vort_r_min                   =   0.0000000000000E+00
(PID.TID 0000.0001) %MON vort_r_max                   =   0.0000000000000E+00
(PID.TID 0000.0001) %MON vort_a_mean                  =  -1.4007437277915E-04
(PID.TID 0000.0001) %MON vort_a_sd                    =   1.7682771465337E-06
(PID.TID 0000.0001) %MON vort_p_mean                  =  -1.5039772194955E-04
(PID.TID 0000.0001) %MON vort_p_sd                    =   8.7081213929711E-05
(PID.TID 0000.0001) %MON surfExpan_theta_mean         =   0.0000000000000E+00
(PID.TID 0000.0001) %MON surfExpan_salt_mean          =   0.0000000000000E+00
(PID.TID 0000.0001) // =======================================================
(PID.TID 0000.0001) // End MONITOR dynamic field statistics
(PID.TID 0000.0001) // =======================================================
(PID.TID 0000.0001) SOLVE_FOR_PRESSURE: putPmEinXvector =    F
(PID.TID 0000.0001) SOLVE_FOR_PRESSURE: zeroPsNH=    F , zeroMeanPnh=    F
(PID.TID 0000.0001) SOLVE_FOR_PRESSURE: oldFreeSurfTerm =    F
 cg2d: Sum(rhs),rhsMax =  -1.05471187339390E-14  2.93977357768777E-13
(PID.TID 0000.0001)      cg2d_init_res =   1.98463437429330E+01
(PID.TID 0000.0001)      cg2d_iters(min,last) =      -1     213
(PID.TID 0000.0001)      cg2d_last_res =   8.50712200766306E-14
(PID.TID 0000.0001) // =======================================================
(PID.TID 0000.0001) // Begin MONITOR dynamic field statistics
(PID.TID 0000.0001) // =======================================================
(PID.TID 0000.0001) %MON time_tsnumber                =                     1
(PID.TID 0000.0001) %MON time_secondsf                =   1.8000000000000E+03
(PID.TID 0000.0001) %MON dynstat_eta_max              =   6.4488818373228E-14
(PID.TID 0000.0001) %MON dynstat_eta_min              =  -3.6172954226858E-14
(PID.TID 0000.0001) %MON dynstat_eta_mean             =   3.0988109311454E-30
(PID.TID 0000.0001) %MON dynstat_eta_sd               =   1.3931875514769E-14
(PID.TID 0000.0001) %MON dynstat_eta_del2             =   4.4441984940998E-16
(PID.TID 0000.0001) %MON dynstat_uvel_max             =   1.8202135050718E-14
(PID.TID 0000.0001) %MON dynstat_uvel_min             =  -1.0974043498037E-14
(PID.TID 0000.0001) %MON dynstat_uvel_mean            =   8.0986705195257E-17
(PID.TID 0000.0001) %MON dynstat_uvel_sd              =   2.5578110166137E-15
(PID.TID 0000.0001) %MON dynstat_uvel_del2            =   1.7873830438030E-17
(PID.TID 0000.0001) %MON dynstat_vvel_max             =   1.2103015451058E-14
(PID.TID 0000.0001) %MON dynstat_vvel_min             =  -1.5644836033224E-14
(PID.TID 0000.0001) %MON dynstat_vvel_mean            =  -8.6600072037916E-16
(PID.TID 0000.0001) %MON dynstat_vvel_sd              =   1.3540466468274E-15
(PID.TID 0000.0001) %MON dynstat_vvel_del2            =   2.7273172642717E-18
(PID.TID 0000.0001) %MON dynstat_wvel_max             =   4.3644487485413E-17
(PID.TID 0000.0001) %MON dynstat_wvel_min             =  -2.6084941983616E-17
(PID.TID 0000.0001) %MON dynstat_wvel_mean            =  -7.5552451821480E-19
(PID.TID 0000.0001) %MON dynstat_wvel_sd              =   3.9906193280465E-18
(PID.TID 0000.0001) %MON dynstat_wvel_del2            =   2.6707901299602E-20
(PID.TID 0000.0001) %MON dynstat_theta_max            =  -1.9000000000000E+00
(PID.TID 0000.0001) %MON dynstat_theta_min            =  -1.9031618178858E+00
(PID.TID 0000.0001) %MON dynstat_theta_mean           =  -1.9000578104861E+00
(PID.TID 0000.0001) %MON dynstat_theta_sd             =   2.6340590637834E-04
(PID.TID 0000.0001) %MON dynstat_theta_del2           =   2.7690132361455E-07
(PID.TID 0000.0001) %MON dynstat_salt_max             =   3.4400000000000E+01
(PID.TID 0000.0001) %MON dynstat_salt_min             =   3.4398743493572E+01
(PID.TID 0000.0001) %MON dynstat_salt_mean            =   3.4399977026115E+01
(PID.TID 0000.0001) %MON dynstat_salt_sd              =   1.0467750719494E-04
(PID.TID 0000.0001) %MON dynstat_salt_del2            =   1.1004058600462E-07
(PID.TID 0000.0001) %MON advcfl_uvel_max              =   5.3153704815478E-15
(PID.TID 0000.0001) %MON advcfl_vvel_max              =   2.5329506068765E-15
(PID.TID 0000.0001) %MON advcfl_wvel_max              =   2.6186692491248E-15
(PID.TID 0000.0001) %MON advcfl_W_hf_max              =   1.9542839814313E-14
(PID.TID 0000.0001) %MON pe_b_mean                    =  -5.0059715015360E-18
(PID.TID 0000.0001) %MON ke_max                       =   1.6879903915219E-28
(PID.TID 0000.0001) %MON ke_mean                      =   4.4841649695464E-30
(PID.TID 0000.0001) %MON ke_vol                       =   2.9241705273104E+14
(PID.TID 0000.0001) %MON vort_r_min                   =  -2.1928549827812E-18
(PID.TID 0000.0001) %MON vort_r_max                   =   2.5499404335578E-18
(PID.TID 0000.0001) %MON vort_a_mean                  =  -1.4007437277915E-04
(PID.TID 0000.0001) %MON vort_a_sd                    =   1.7682771465646E-06
(PID.TID 0000.0001) %MON vort_p_mean                  =  -1.5039772194955E-04
(PID.TID 0000.0001) %MON vort_p_sd                    =   8.7081213929711E-05
(PID.TID 0000.0001) %MON surfExpan_theta_mean         =  -2.2729732153412E-21
(PID.TID 0000.0001) %MON surfExpan_salt_mean          =  -9.0327955566738E-22
(PID.TID 0000.0001) // =======================================================
(PID.TID 0000.0001) // End MONITOR dynamic field statistics
(PID.TID 0000.0001) // =======================================================
 cg2d: Sum(rhs),rhsMax =   4.80896214877207E-14  2.09266356566321E-06
(PID.TID 0000.0001)      cg2d_init_res =   1.63276022896856E+01
(PID.TID 0000.0001)      cg2d_iters(min,last) =      -1     220
(PID.TID 0000.0001)      cg2d_last_res =   9.45000239419302E-14
(PID.TID 0000.0001) // =======================================================
(PID.TID 0000.0001) // Begin MONITOR dynamic field statistics
(PID.TID 0000.0001) // =======================================================
(PID.TID 0000.0001) %MON time_tsnumber                =                     2
(PID.TID 0000.0001) %MON time_secondsf                =   3.6000000000000E+03
(PID.TID 0000.0001) %MON dynstat_eta_max              =   2.6956274348160E-06
(PID.TID 0000.0001) %MON dynstat_eta_min              =  -5.8294498558658E-06
(PID.TID 0000.0001) %MON dynstat_eta_mean             =  -5.1573504972307E-22
(PID.TID 0000.0001) %MON dynstat_eta_sd               =   1.1153356735661E-06
(PID.TID 0000.0001) %MON dynstat_eta_del2             =   3.0248937712485E-09
(PID.TID 0000.0001) %MON dynstat_uvel_max             =   8.0809820480313E-07
(PID.TID 0000.0001) %MON dynstat_uvel_min             =  -6.3744060301687E-06
(PID.TID 0000.0001) %MON dynstat_uvel_mean            =   1.7206587081837E-09
(PID.TID 0000.0001) %MON dynstat_uvel_sd              =   4.3466129225933E-07
(PID.TID 0000.0001) %MON dynstat_uvel_del2            =   1.0124427535919E-09
(PID.TID 0000.0001) %MON dynstat_vvel_max             =   2.5121341692440E-05
(PID.TID 0000.0001) %MON dynstat_vvel_min             =  -3.1492442082188E-06
(PID.TID 0000.0001) %MON dynstat_vvel_mean            =  -7.2875189270203E-08
(PID.TID 0000.0001) %MON dynstat_vvel_sd              =   1.5736624776887E-06
(PID.TID 0000.0001) %MON dynstat_vvel_del2            =   3.1575242442089E-09
(PID.TID 0000.0001) %MON dynstat_wvel_max             =   5.6932308918535E-08
(PID.TID 0000.0001) %MON dynstat_wvel_min             =  -5.2308959079834E-08
(PID.TID 0000.0001) %MON dynstat_wvel_mean            =  -4.4005485344605E-11
(PID.TID 0000.0001) %MON dynstat_wvel_sd              =   4.1627319134965E-09
(PID.TID 0000.0001) %MON dynstat_wvel_del2            =   4.5447493603281E-11
(PID.TID 0000.0001) %MON dynstat_theta_max            =  -1.9000000000000E+00
(PID.TID 0000.0001) %MON dynstat_theta_min            =  -1.9062982113462E+00
(PID.TID 0000.0001) %MON dynstat_theta_mean           =  -1.9001151625410E+00
(PID.TID 0000.0001) %MON dynstat_theta_sd             =   5.2455526009694E-04
(PID.TID 0000.0001) %MON dynstat_theta_del2           =   5.4968123256326E-07
(PID.TID 0000.0001) %MON dynstat_salt_max             =   3.4400000000000E+01
(PID.TID 0000.0001) %MON dynstat_salt_min             =   3.4397497090811E+01
(PID.TID 0000.0001) %MON dynstat_salt_mean            =   3.4399954234409E+01
(PID.TID 0000.0001) %MON dynstat_salt_sd              =   2.0845826036265E-04
(PID.TID 0000.0001) %MON dynstat_salt_del2            =   2.1844332182057E-07
(PID.TID 0000.0001) %MON advcfl_uvel_max              =   1.8966665763083E-06
(PID.TID 0000.0001) %MON advcfl_vvel_max              =   4.0672281607993E-06
(PID.TID 0000.0001) %MON advcfl_wvel_max              =   3.4159385351121E-06
(PID.TID 0000.0001) %MON advcfl_W_hf_max              =   5.2646205334412E-06
(PID.TID 0000.0001) %MON pe_b_mean                    =  -7.8112833227243E-10
(PID.TID 0000.0001) %MON ke_max                       =   1.8879651309490E-10
(PID.TID 0000.0001) %MON ke_mean                      =   1.3188115744162E-12
(PID.TID 0000.0001) %MON ke_vol                       =   2.9241705273104E+14
(PID.TID 0000.0001) %MON vort_r_min                   =  -4.2187691159656E-09
(PID.TID 0000.0001) %MON vort_r_max                   =   4.1720074056265E-09
(PID.TID 0000.0001) %MON vort_a_mean                  =  -1.4007437277911E-04
(PID.TID 0000.0001) %MON vort_a_sd                    =   1.7682771035083E-06
(PID.TID 0000.0001) %MON vort_p_mean                  =  -1.5039772194950E-04
(PID.TID 0000.0001) %MON vort_p_sd                    =   8.7081151255717E-05
(PID.TID 0000.0001) %MON surfExpan_theta_mean         =  -2.5931538317173E-13
(PID.TID 0000.0001) %MON surfExpan_salt_mean          =  -1.0305193327497E-13
(PID.TID 0000.0001) // =======================================================
(PID.TID 0000.0001) // End MONITOR dynamic field statistics
(PID.TID 0000.0001) // =======================================================
 cg2d: Sum(rhs),rhsMax =   8.88178419700125E-15  3.51189057084960E-06
(PID.TID 0000.0001)      cg2d_init_res =   5.15762113085561E+00
(PID.TID 0000.0001)      cg2d_iters(min,last) =      -1     218
(PID.TID 0000.0001)      cg2d_last_res =   9.48091320422145E-14
(PID.TID 0000.0001) // =======================================================
(PID.TID 0000.0001) // Begin MONITOR dynamic field statistics
(PID.TID 0000.0001) // =======================================================
(PID.TID 0000.0001) %MON time_tsnumber                =                     3
(PID.TID 0000.0001) %MON time_secondsf                =   5.4000000000000E+03
(PID.TID 0000.0001) %MON dynstat_eta_max              =   6.9142129804054E-06
(PID.TID 0000.0001) %MON dynstat_eta_min              =  -1.1329737027499E-05
(PID.TID 0000.0001) %MON dynstat_eta_mean             =   6.6546458028784E-23
(PID.TID 0000.0001) %MON dynstat_eta_sd               =   2.6478585593968E-06
(PID.TID 0000.0001) %MON dynstat_eta_del2             =   4.3659721877260E-09
(PID.TID 0000.0001) %MON dynstat_uvel_max             =   2.9856198493180E-06
(PID.TID 0000.0001) %MON dynstat_uvel_min             =  -2.1674701112225E-05
(PID.TID 0000.0001) %MON dynstat_uvel_mean            =   6.2877576046714E-09
(PID.TID 0000.0001) %MON dynstat_uvel_sd              =   1.5109160023502E-06
(PID.TID 0000.0001) %MON dynstat_uvel_del2            =   3.4332307970070E-09
(PID.TID 0000.0001) %MON dynstat_vvel_max             =   6.1817180229086E-05
(PID.TID 0000.0001) %MON dynstat_vvel_min             =  -8.2295962389743E-06
(PID.TID 0000.0001) %MON dynstat_vvel_mean            =  -1.7552774348295E-07
(PID.TID 0000.0001) %MON dynstat_vvel_sd              =   3.9314389526919E-06
(PID.TID 0000.0001) %MON dynstat_vvel_del2            =   7.8311879060209E-09
(PID.TID 0000.0001) %MON dynstat_wvel_max             =   1.5687965094927E-07
(PID.TID 0000.0001) %MON dynstat_wvel_min             =  -1.5533437694031E-07
(PID.TID 0000.0001) %MON dynstat_wvel_mean            =  -9.1870329274201E-11
(PID.TID 0000.0001) %MON dynstat_wvel_sd              =   1.0543465886298E-08
(PID.TID 0000.0001) %MON dynstat_wvel_del2            =   1.1270934898849E-10
(PID.TID 0000.0001) %MON dynstat_theta_max            =  -1.9000000000000E+00
(PID.TID 0000.0001) %MON dynstat_theta_min            =  -1.9094189319362E+00
(PID.TID 0000.0001) %MON dynstat_theta_mean           =  -1.9001722318866E+00
(PID.TID 0000.0001) %MON dynstat_theta_sd             =   7.8431412379488E-04
(PID.TID 0000.0001) %MON dynstat_theta_del2           =   8.1995059173517E-07
(PID.TID 0000.0001) %MON dynstat_salt_max             =   3.4400000000000E+01
(PID.TID 0000.0001) %MON dynstat_salt_min             =   3.4396256916449E+01
(PID.TID 0000.0001) %MON dynstat_salt_mean            =   3.4399931555051E+01
(PID.TID 0000.0001) %MON dynstat_salt_sd              =   3.1168643279623E-04
(PID.TID 0000.0001) %MON dynstat_salt_del2            =   3.2584836515549E-07
(PID.TID 0000.0001) %MON advcfl_uvel_max              =   6.4491783166093E-06
(PID.TID 0000.0001) %MON advcfl_vvel_max              =   1.0008405575113E-05
(PID.TID 0000.0001) %MON advcfl_wvel_max              =   9.4127790569562E-06
(PID.TID 0000.0001) %MON advcfl_W_hf_max              =   1.2855900109656E-05
(PID.TID 0000.0001) %MON pe_b_mean                    =  -2.0807642548679E-09
(PID.TID 0000.0001) %MON ke_max                       =   1.2684266580024E-09
(PID.TID 0000.0001) %MON ke_mean                      =   8.7706252988567E-12
(PID.TID 0000.0001) %MON ke_vol                       =   2.9241705273104E+14
(PID.TID 0000.0001) %MON vort_r_min                   =  -1.0437735758657E-08
(PID.TID 0000.0001) %MON vort_r_max                   =   1.0266729727161E-08
(PID.TID 0000.0001) %MON vort_a_mean                  =  -1.4007437277833E-04
(PID.TID 0000.0001) %MON vort_a_sd                    =   1.7682770042192E-06
(PID.TID 0000.0001) %MON vort_p_mean                  =  -1.5039772194867E-04
(PID.TID 0000.0001) %MON vort_p_sd                    =   8.7080994533262E-05
(PID.TID 0000.0001) %MON surfExpan_theta_mean         =  -8.1589223263792E-13
(PID.TID 0000.0001) %MON surfExpan_salt_mean          =  -3.2423557323161E-13
(PID.TID 0000.0001) // =======================================================
(PID.TID 0000.0001) // End MONITOR dynamic field statistics
(PID.TID 0000.0001) // =======================================================
 cg2d: Sum(rhs),rhsMax =  -8.88178419700125E-14  4.89658519885076E-06
(PID.TID 0000.0001)      cg2d_init_res =   3.41585009757996E+00
(PID.TID 0000.0001)      cg2d_iters(min,last) =      -1     218
(PID.TID 0000.0001)      cg2d_last_res =   9.85355893915412E-14
(PID.TID 0000.0001) // =======================================================
(PID.TID 0000.0001) // Begin MONITOR dynamic field statistics
(PID.TID 0000.0001) // =======================================================
(PID.TID 0000.0001) %MON time_tsnumber                =                     4
(PID.TID 0000.0001) %MON time_secondsf                =   7.2000000000000E+03
(PID.TID 0000.0001) %MON dynstat_eta_max              =   1.1804595972058E-05
(PID.TID 0000.0001) %MON dynstat_eta_min              =  -1.5321985149348E-05
(PID.TID 0000.0001) %MON dynstat_eta_mean             =   1.7302079087484E-21
(PID.TID 0000.0001) %MON dynstat_eta_sd               =   4.3278836468069E-06
(PID.TID 0000.0001) %MON dynstat_eta_del2             =   5.5688743350820E-09
(PID.TID 0000.0001) %MON dynstat_uvel_max             =   6.8069285099073E-06
(PID.TID 0000.0001) %MON dynstat_uvel_min             =  -4.8006971588150E-05
(PID.TID 0000.0001) %MON dynstat_uvel_mean            =   1.1160649313596E-08
(PID.TID 0000.0001) %MON dynstat_uvel_sd              =   3.3917469966011E-06
(PID.TID 0000.0001) %MON dynstat_uvel_del2            =   7.5897047533656E-09
(PID.TID 0000.0001) %MON dynstat_vvel_max             =   1.0733179918858E-04
(PID.TID 0000.0001) %MON dynstat_vvel_min             =  -1.4760435690462E-05
(PID.TID 0000.0001) %MON dynstat_vvel_mean            =  -2.8599179036788E-07
(PID.TID 0000.0001) %MON dynstat_vvel_sd              =   6.8857762224579E-06
(PID.TID 0000.0001) %MON dynstat_vvel_del2            =   1.3641231547144E-08
(PID.TID 0000.0001) %MON dynstat_wvel_max             =   3.0662728436369E-07
(PID.TID 0000.0001) %MON dynstat_wvel_min             =  -3.1386778951536E-07
(PID.TID 0000.0001) %MON dynstat_wvel_mean            =  -1.3440401990323E-10
(PID.TID 0000.0001) %MON dynstat_wvel_sd              =   1.8874697222219E-08
(PID.TID 0000.0001) %MON dynstat_wvel_del2            =   1.9633833375802E-10
(PID.TID 0000.0001) %MON dynstat_theta_max            =  -1.9000000000000E+00
(PID.TID 0000.0001) %MON dynstat_theta_min            =  -1.9125240289583E+00
(PID.TID 0000.0001) %MON dynstat_theta_mean           =  -1.9002290194424E+00
(PID.TID 0000.0001) %MON dynstat_theta_sd             =   1.0426873329528E-03
(PID.TID 0000.0001) %MON dynstat_theta_del2           =   1.0877285658820E-06
(PID.TID 0000.0001) %MON dynstat_salt_max             =   3.4400000000000E+01
(PID.TID 0000.0001) %MON dynstat_salt_min             =   3.4395022950892E+01
(PID.TID 0000.0001) %MON dynstat_salt_mean            =   3.4399908987676E+01
(PID.TID 0000.0001) %MON dynstat_salt_sd              =   4.1436394611557E-04
(PID.TID 0000.0001) %MON dynstat_salt_del2            =   4.3226333208146E-07
(PID.TID 0000.0001) %MON advcfl_uvel_max              =   1.4284188677359E-05
(PID.TID 0000.0001) %MON advcfl_vvel_max              =   1.7377372656033E-05
(PID.TID 0000.0001) %MON advcfl_wvel_max              =   1.8832067370922E-05
(PID.TID 0000.0001) %MON advcfl_W_hf_max              =   2.5561882380369E-05
(PID.TID 0000.0001) %MON pe_b_mean                    =  -3.7166185304622E-09
(PID.TID 0000.0001) %MON ke_max                       =   4.2948388934129E-09
(PID.TID 0000.0001) %MON ke_mean                      =   2.9103285684347E-11
(PID.TID 0000.0001) %MON ke_vol                       =   2.9241705273104E+14
(PID.TID 0000.0001) %MON vort_r_min                   =  -1.8172273771174E-08
(PID.TID 0000.0001) %MON vort_r_max                   =   1.7859384202146E-08
(PID.TID 0000.0001) %MON vort_a_mean                  =  -1.4007437277484E-04
(PID.TID 0000.0001) %MON vort_a_sd                    =   1.7682768383786E-06
(PID.TID 0000.0001) %MON vort_p_mean                  =  -1.5039772194491E-04
(PID.TID 0000.0001) %MON vort_p_sd                    =   8.7080720570849E-05
(PID.TID 0000.0001) %MON surfExpan_theta_mean         =  -1.5931645035500E-12
(PID.TID 0000.0001) %MON surfExpan_salt_mean          =  -6.3312357373583E-13
(PID.TID 0000.0001) // =======================================================
(PID.TID 0000.0001) // End MONITOR dynamic field statistics
(PID.TID 0000.0001) // =======================================================
 cg2d: Sum(rhs),rhsMax =  -2.84217094304040E-14  6.08427604675793E-06
(PID.TID 0000.0001)      cg2d_init_res =   2.57100396644384E+00
(PID.TID 0000.0001)      cg2d_iters(min,last) =      -1     219
(PID.TID 0000.0001)      cg2d_last_res =   8.65215491233190E-14
(PID.TID 0000.0001) // =======================================================
(PID.TID 0000.0001) // Begin MONITOR dynamic field statistics
(PID.TID 0000.0001) // =======================================================
(PID.TID 0000.0001) %MON time_tsnumber                =                     5
(PID.TID 0000.0001) %MON time_secondsf                =   9.0000000000000E+03
(PID.TID 0000.0001) %MON dynstat_eta_max              =   1.7093556563461E-05
(PID.TID 0000.0001) %MON dynstat_eta_min              =  -1.8152665531417E-05
(PID.TID 0000.0001) %MON dynstat_eta_mean             =   5.5899024744178E-21
(PID.TID 0000.0001) %MON dynstat_eta_sd               =   6.1254296734625E-06
(PID.TID 0000.0001) %MON dynstat_eta_del2             =   6.5855113366696E-09
(PID.TID 0000.0001) %MON dynstat_uvel_max             =   1.2442384117184E-05
(PID.TID 0000.0001) %MON dynstat_uvel_min             =  -8.6689461983067E-05
(PID.TID 0000.0001) %MON dynstat_uvel_mean            =   1.3534355527818E-08
(PID.TID 0000.0001) %MON dynstat_uvel_sd              =   6.1767731628079E-06
(PID.TID 0000.0001) %MON dynstat_uvel_del2            =   1.3657949800171E-08
(PID.TID 0000.0001) %MON dynstat_vvel_max             =   1.5851412721733E-04
(PID.TID 0000.0001) %MON dynstat_vvel_min             =  -2.2233244796931E-05
(PID.TID 0000.0001) %MON dynstat_vvel_mean            =  -3.8270444581691E-07
(PID.TID 0000.0001) %MON dynstat_vvel_sd              =   1.0212669303902E-05
(PID.TID 0000.0001) %MON dynstat_vvel_del2            =   2.0144514749011E-08
(PID.TID 0000.0001) %MON dynstat_wvel_max             =   5.2487775596013E-07
(PID.TID 0000.0001) %MON dynstat_wvel_min             =  -5.2916264369397E-07
(PID.TID 0000.0001) %MON dynstat_wvel_mean            =  -1.6475944470541E-10
(PID.TID 0000.0001) %MON dynstat_wvel_sd              =   2.8833192037523E-08
(PID.TID 0000.0001) %MON dynstat_wvel_del2            =   2.9031523539996E-10
(PID.TID 0000.0001) %MON dynstat_theta_max            =  -1.9000000000000E+00
(PID.TID 0000.0001) %MON dynstat_theta_min            =  -1.9156135851971E+00
(PID.TID 0000.0001) %MON dynstat_theta_mean           =  -1.9002855266689E+00
(PID.TID 0000.0001) %MON dynstat_theta_sd             =   1.2996825195401E-03
(PID.TID 0000.0001) %MON dynstat_theta_del2           =   1.3530422421147E-06
(PID.TID 0000.0001) %MON dynstat_salt_max             =   3.4400000000000E+01
(PID.TID 0000.0001) %MON dynstat_salt_min             =   3.4393795161243E+01
(PID.TID 0000.0001) %MON dynstat_salt_mean            =   3.4399886531704E+01
(PID.TID 0000.0001) %MON dynstat_salt_sd              =   5.1649383326546E-04
(PID.TID 0000.0001) %MON dynstat_salt_del2            =   5.3769898701635E-07
(PID.TID 0000.0001) %MON advcfl_uvel_max              =   2.5793933471332E-05
(PID.TID 0000.0001) %MON advcfl_vvel_max              =   2.5663960547811E-05
(PID.TID 0000.0001) %MON advcfl_wvel_max              =   3.1749758621638E-05
(PID.TID 0000.0001) %MON advcfl_W_hf_max              =   4.2336218045312E-05
(PID.TID 0000.0001) %MON pe_b_mean                    =  -5.5798295086924E-09
(PID.TID 0000.0001) %MON ke_max                       =   1.0632052195558E-08
(PID.TID 0000.0001) %MON ke_mean                      =   7.0295575888391E-11
(PID.TID 0000.0001) %MON ke_vol                       =   2.9241705273104E+14
(PID.TID 0000.0001) %MON vort_r_min                   =  -2.6837918847619E-08
(PID.TID 0000.0001) %MON vort_r_max                   =   2.6345600296218E-08
(PID.TID 0000.0001) %MON vort_a_mean                  =  -1.4007437276559E-04
(PID.TID 0000.0001) %MON vort_a_sd                    =   1.7682766176860E-06
(PID.TID 0000.0001) %MON vort_p_mean                  =  -1.5039772193498E-04
(PID.TID 0000.0001) %MON vort_p_sd                    =   8.7080314875184E-05
(PID.TID 0000.0001) %MON surfExpan_theta_mean         =  -2.4381479876116E-12
(PID.TID 0000.0001) %MON surfExpan_salt_mean          =  -9.6892001024164E-13
(PID.TID 0000.0001) // =======================================================
(PID.TID 0000.0001) // End MONITOR dynamic field statistics
(PID.TID 0000.0001) // =======================================================
 cg2d: Sum(rhs),rhsMax =  -3.55271367880050E-14  7.52494846144339E-06
(PID.TID 0000.0001)      cg2d_init_res =   2.02008551259206E+00
(PID.TID 0000.0001)      cg2d_iters(min,last) =      -1     217
(PID.TID 0000.0001)      cg2d_last_res =   9.89240600844938E-14
(PID.TID 0000.0001) // =======================================================
(PID.TID 0000.0001) // Begin MONITOR dynamic field statistics
(PID.TID 0000.0001) // =======================================================
(PID.TID 0000.0001) %MON time_tsnumber                =                     6
(PID.TID 0000.0001) %MON time_secondsf                =   1.0800000000000E+04
(PID.TID 0000.0001) %MON dynstat_eta_max              =   2.2751900467354E-05
(PID.TID 0000.0001) %MON dynstat_eta_min              =  -2.0675732813437E-05
(PID.TID 0000.0001) %MON dynstat_eta_mean             =   2.6618583211513E-21
(PID.TID 0000.0001) %MON dynstat_eta_sd               =   8.0457330237598E-06
(PID.TID 0000.0001) %MON dynstat_eta_del2             =   7.4236605543422E-09
(PID.TID 0000.0001) %MON dynstat_uvel_max             =   2.0041132917093E-05
(PID.TID 0000.0001) %MON dynstat_uvel_min             =  -1.3810768175068E-04
(PID.TID 0000.0001) %MON dynstat_uvel_mean            =   1.1832215120276E-08
(PID.TID 0000.0001) %MON dynstat_uvel_sd              =   9.8994306141250E-06
(PID.TID 0000.0001) %MON dynstat_uvel_del2            =   2.1674657850266E-08
(PID.TID 0000.0001) %MON dynstat_vvel_max             =   2.1161043901013E-04
(PID.TID 0000.0001) %MON dynstat_vvel_min             =  -3.0132472831065E-05
(PID.TID 0000.0001) %MON dynstat_vvel_mean            =  -4.4858712619122E-07
(PID.TID 0000.0001) %MON dynstat_vvel_sd              =   1.3674191583338E-05
(PID.TID 0000.0001) %MON dynstat_vvel_del2            =   2.6884723034162E-08
(PID.TID 0000.0001) %MON dynstat_wvel_max             =   8.0080635062391E-07
(PID.TID 0000.0001) %MON dynstat_wvel_min             =  -7.9863710074249E-07
(PID.TID 0000.0001) %MON dynstat_wvel_mean            =  -1.7916520567940E-10
(PID.TID 0000.0001) %MON dynstat_wvel_sd              =   4.0070853315071E-08
(PID.TID 0000.0001) %MON dynstat_wvel_del2            =   3.8844796132318E-10
(PID.TID 0000.0001) %MON dynstat_theta_max            =  -1.9000000000000E+00
(PID.TID 0000.0001) %MON dynstat_theta_min            =  -1.9186876858487E+00
(PID.TID 0000.0001) %MON dynstat_theta_mean           =  -1.9003417550174E+00
(PID.TID 0000.0001) %MON dynstat_theta_sd             =   1.5553072673892E-03
(PID.TID 0000.0001) %MON dynstat_theta_del2           =   1.6159183727637E-06
(PID.TID 0000.0001) %MON dynstat_salt_max             =   3.4400000000000E+01
(PID.TID 0000.0001) %MON dynstat_salt_min             =   3.4392573513644E+01
(PID.TID 0000.0001) %MON dynstat_salt_mean            =   3.4399864186558E+01
(PID.TID 0000.0001) %MON dynstat_salt_sd              =   6.1807910806065E-04
(PID.TID 0000.0001) %MON dynstat_salt_del2            =   6.4216596133631E-07
(PID.TID 0000.0001) %MON advcfl_uvel_max              =   4.1093118742078E-05
(PID.TID 0000.0001) %MON advcfl_vvel_max              =   3.4260428730210E-05
(PID.TID 0000.0001) %MON advcfl_wvel_max              =   4.8048381037434E-05
(PID.TID 0000.0001) %MON advcfl_W_hf_max              =   6.2796203403916E-05
(PID.TID 0000.0001) %MON pe_b_mean                    =  -7.5764163967719E-09
(PID.TID 0000.0001) %MON ke_max                       =   2.1809798560880E-08
(PID.TID 0000.0001) %MON ke_mean                      =   1.4049141139483E-10
(PID.TID 0000.0001) %MON ke_vol                       =   2.9241705273104E+14
(PID.TID 0000.0001) %MON vort_r_min                   =  -3.5827619210724E-08
(PID.TID 0000.0001) %MON vort_r_max                   =   3.5119211601408E-08
(PID.TID 0000.0001) %MON vort_a_mean                  =  -1.4007437274844E-04
(PID.TID 0000.0001) %MON vort_a_sd                    =   1.7682763611008E-06
(PID.TID 0000.0001) %MON vort_p_mean                  =  -1.5039772191657E-04
(PID.TID 0000.0001) %MON vort_p_sd                    =   8.7079772551615E-05
(PID.TID 0000.0001) %MON surfExpan_theta_mean         =  -3.1727014709013E-12
(PID.TID 0000.0001) %MON surfExpan_salt_mean          =  -1.2608315644780E-12
(PID.TID 0000.0001) // =======================================================
(PID.TID 0000.0001) // End MONITOR dynamic field statistics
(PID.TID 0000.0001) // =======================================================
 cg2d: Sum(rhs),rhsMax =   2.27373675443232E-13  9.00033717359576E-06
(PID.TID 0000.0001)      cg2d_init_res =   1.70382445764468E+00
(PID.TID 0000.0001)      cg2d_iters(min,last) =      -1     216
(PID.TID 0000.0001)      cg2d_last_res =   9.93155875967188E-14
(PID.TID 0000.0001) // =======================================================
(PID.TID 0000.0001) // Begin MONITOR dynamic field statistics
(PID.TID 0000.0001) // =======================================================
(PID.TID 0000.0001) %MON time_tsnumber                =                     7
(PID.TID 0000.0001) %MON time_secondsf                =   1.2600000000000E+04
(PID.TID 0000.0001) %MON dynstat_eta_max              =   2.8655899983516E-05
(PID.TID 0000.0001) %MON dynstat_eta_min              =  -2.3591660486685E-05
(PID.TID 0000.0001) %MON dynstat_eta_mean             =   8.5179466276843E-21
(PID.TID 0000.0001) %MON dynstat_eta_sd               =   1.0037163813563E-05
(PID.TID 0000.0001) %MON dynstat_eta_del2             =   8.0972008705173E-09
(PID.TID 0000.0001) %MON dynstat_uvel_max             =   2.9635582216465E-05
(PID.TID 0000.0001) %MON dynstat_uvel_min             =  -2.0173054531599E-04
(PID.TID 0000.0001) %MON dynstat_uvel_mean            =   6.3827482480445E-09
(PID.TID 0000.0001) %MON dynstat_uvel_sd              =   1.4528497858080E-05
(PID.TID 0000.0001) %MON dynstat_uvel_del2            =   3.1544269467910E-08
(PID.TID 0000.0001) %MON dynstat_vvel_max             =   2.6314048810109E-04
(PID.TID 0000.0001) %MON dynstat_vvel_min             =  -3.7969989804882E-05
(PID.TID 0000.0001) %MON dynstat_vvel_mean            =  -4.7358088290062E-07
(PID.TID 0000.0001) %MON dynstat_vvel_sd              =   1.7035205377827E-05
(PID.TID 0000.0001) %MON dynstat_vvel_del2            =   3.3423303798577E-08
(PID.TID 0000.0001) %MON dynstat_wvel_max             =   1.1288225263089E-06
(PID.TID 0000.0001) %MON dynstat_wvel_min             =  -1.1162849253694E-06
(PID.TID 0000.0001) %MON dynstat_wvel_mean            =  -1.7689275116855E-10
(PID.TID 0000.0001) %MON dynstat_wvel_sd              =   5.2238482827941E-08
(PID.TID 0000.0001) %MON dynstat_wvel_del2            =   4.8487440430029E-10
(PID.TID 0000.0001) %MON dynstat_theta_max            =  -1.9000000000000E+00
(PID.TID 0000.0001) %MON dynstat_theta_min            =  -1.9217464192225E+00
(PID.TID 0000.0001) %MON dynstat_theta_mean           =  -1.9003977059325E+00
(PID.TID 0000.0001) %MON dynstat_theta_sd             =   1.8095691207457E-03
(PID.TID 0000.0001) %MON dynstat_theta_del2           =   1.8763832906801E-06
(PID.TID 0000.0001) %MON dynstat_salt_max             =   3.4400000000000E+01
(PID.TID 0000.0001) %MON dynstat_salt_min             =   3.4391357973001E+01
(PID.TID 0000.0001) %MON dynstat_salt_mean            =   3.4399841951665E+01
(PID.TID 0000.0001) %MON dynstat_salt_sd              =   7.1912276858447E-04
(PID.TID 0000.0001) %MON dynstat_salt_del2            =   7.4567471971623E-07
(PID.TID 0000.0001) %MON advcfl_uvel_max              =   6.0023723137567E-05
(PID.TID 0000.0001) %MON advcfl_vvel_max              =   4.2603313809998E-05
(PID.TID 0000.0001) %MON advcfl_wvel_max              =   6.7729351578533E-05
(PID.TID 0000.0001) %MON advcfl_W_hf_max              =   8.6369092771978E-05
(PID.TID 0000.0001) %MON pe_b_mean                    =  -9.5969402515438E-09
(PID.TID 0000.0001) %MON ke_max                       =   3.9327351729015E-08
(PID.TID 0000.0001) %MON ke_mean                      =   2.4688873769319E-10
(PID.TID 0000.0001) %MON ke_vol                       =   2.9241705273104E+14
(PID.TID 0000.0001) %MON vort_r_min                   =  -4.4552136703229E-08
(PID.TID 0000.0001) %MON vort_r_max                   =   4.3596563749351E-08
(PID.TID 0000.0001) %MON vort_a_mean                  =  -1.4007437272402E-04
(PID.TID 0000.0001) %MON vort_a_sd                    =   1.7682760853400E-06
(PID.TID 0000.0001) %MON vort_p_mean                  =  -1.5039772189035E-04
(PID.TID 0000.0001) %MON vort_p_sd                    =   8.7079098167137E-05
(PID.TID 0000.0001) %MON surfExpan_theta_mean         =  -3.6403946473531E-12
(PID.TID 0000.0001) %MON surfExpan_salt_mean          =  -1.4466928328761E-12
(PID.TID 0000.0001) // =======================================================
(PID.TID 0000.0001) // End MONITOR dynamic field statistics
(PID.TID 0000.0001) // =======================================================
 cg2d: Sum(rhs),rhsMax =  -7.10542735760100E-15  1.04634544099986E-05
(PID.TID 0000.0001)      cg2d_init_res =   1.52008341025334E+00
(PID.TID 0000.0001)      cg2d_iters(min,last) =      -1     216
(PID.TID 0000.0001)      cg2d_last_res =   8.08864654837159E-14
(PID.TID 0000.0001) // =======================================================
(PID.TID 0000.0001) // Begin MONITOR dynamic field statistics
(PID.TID 0000.0001) // =======================================================
(PID.TID 0000.0001) %MON time_tsnumber                =                     8
(PID.TID 0000.0001) %MON time_secondsf                =   1.4400000000000E+04
(PID.TID 0000.0001) %MON dynstat_eta_max              =   3.4647818788668E-05
(PID.TID 0000.0001) %MON dynstat_eta_min              =  -2.7224315376494E-05
(PID.TID 0000.0001) %MON dynstat_eta_mean             =  -2.1294866569211E-21
(PID.TID 0000.0001) %MON dynstat_eta_sd               =   1.2000857792063E-05
(PID.TID 0000.0001) %MON dynstat_eta_del2             =   8.6233240058689E-09
(PID.TID 0000.0001) %MON dynstat_uvel_max             =   4.0960470854063E-05
(PID.TID 0000.0001) %MON dynstat_uvel_min             =  -2.7621877184907E-04
(PID.TID 0000.0001) %MON dynstat_uvel_mean            =  -8.5117847287567E-10
(PID.TID 0000.0001) %MON dynstat_uvel_sd              =   1.9973551632762E-05
(PID.TID 0000.0001) %MON dynstat_uvel_del2            =   4.3055007960842E-08
(PID.TID 0000.0001) %MON dynstat_vvel_max             =   3.0995299084390E-04
(PID.TID 0000.0001) %MON dynstat_vvel_min             =  -4.5305416276947E-05
(PID.TID 0000.0001) %MON dynstat_vvel_mean            =  -4.5526786462456E-07
(PID.TID 0000.0001) %MON dynstat_vvel_sd              =   2.0078666563848E-05
(PID.TID 0000.0001) %MON dynstat_vvel_del2            =   3.9366508230005E-08
(PID.TID 0000.0001) %MON dynstat_wvel_max             =   1.5003311659788E-06
(PID.TID 0000.0001) %MON dynstat_wvel_min             =  -1.4733313559722E-06
(PID.TID 0000.0001) %MON dynstat_wvel_mean            =  -1.5953261812837E-10
(PID.TID 0000.0001) %MON dynstat_wvel_sd              =   6.4999158598571E-08
(PID.TID 0000.0001) %MON dynstat_wvel_del2            =   5.7443152882291E-10
(PID.TID 0000.0001) %MON dynstat_theta_max            =  -1.9000000000000E+00
(PID.TID 0000.0001) %MON dynstat_theta_min            =  -1.9247898769920E+00
(PID.TID 0000.0001) %MON dynstat_theta_mean           =  -1.9004533808511E+00
(PID.TID 0000.0001) %MON dynstat_theta_sd             =   2.0624755828344E-03
(PID.TID 0000.0001) %MON dynstat_theta_del2           =   2.1344628333209E-06
(PID.TID 0000.0001) %MON dynstat_salt_max             =   3.4400000000000E+01
(PID.TID 0000.0001) %MON dynstat_salt_min             =   3.4390148502883E+01
(PID.TID 0000.0001) %MON dynstat_salt_mean            =   3.4399819826452E+01
(PID.TID 0000.0001) %MON dynstat_salt_sd              =   8.1962779661854E-04
(PID.TID 0000.0001) %MON dynstat_salt_del2            =   8.4823552996167E-07
(PID.TID 0000.0001) %MON advcfl_uvel_max              =   8.2187251617728E-05
(PID.TID 0000.0001) %MON advcfl_vvel_max              =   5.0182412560538E-05
(PID.TID 0000.0001) %MON advcfl_wvel_max              =   9.0019869958728E-05
(PID.TID 0000.0001) %MON advcfl_W_hf_max              =   1.1232206335908E-04
(PID.TID 0000.0001) %MON pe_b_mean                    =  -1.1521035898077E-08
(PID.TID 0000.0001) %MON ke_max                       =   6.4431834342085E-08
(PID.TID 0000.0001) %MON ke_mean                      =   3.9470936938214E-10
(PID.TID 0000.0001) %MON ke_vol                       =   2.9241705273104E+14
(PID.TID 0000.0001) %MON vort_r_min                   =  -5.2477929638663E-08
(PID.TID 0000.0001) %MON vort_r_max                   =   5.1254127617179E-08
(PID.TID 0000.0001) %MON vort_a_mean                  =  -1.4007437269615E-04
(PID.TID 0000.0001) %MON vort_a_sd                    =   1.7682758028467E-06
(PID.TID 0000.0001) %MON vort_p_mean                  =  -1.5039772186043E-04
(PID.TID 0000.0001) %MON vort_p_sd                    =   8.7078304918182E-05
(PID.TID 0000.0001) %MON surfExpan_theta_mean         =  -3.7340526756055E-12
(PID.TID 0000.0001) %MON surfExpan_salt_mean          =  -1.4839125332837E-12
(PID.TID 0000.0001) // =======================================================
(PID.TID 0000.0001) // End MONITOR dynamic field statistics
(PID.TID 0000.0001) // =======================================================
 cg2d: Sum(rhs),rhsMax =   7.10542735760100E-14  1.18761183318269E-05
(PID.TID 0000.0001)      cg2d_init_res =   1.41310239832787E+00
(PID.TID 0000.0001)      cg2d_iters(min,last) =      -1     215
(PID.TID 0000.0001)      cg2d_last_res =   7.77741976856536E-14
(PID.TID 0000.0001) // =======================================================
(PID.TID 0000.0001) // Begin MONITOR dynamic field statistics
(PID.TID 0000.0001) // =======================================================
(PID.TID 0000.0001) %MON time_tsnumber                =                     9
(PID.TID 0000.0001) %MON time_secondsf                =   1.6200000000000E+04
(PID.TID 0000.0001) %MON dynstat_eta_max              =   4.0373662612263E-05
(PID.TID 0000.0001) %MON dynstat_eta_min              =  -3.1609728856358E-05
(PID.TID 0000.0001) %MON dynstat_eta_mean             =   1.8633008248059E-20
(PID.TID 0000.0001) %MON dynstat_eta_sd               =   1.3828605190705E-05
(PID.TID 0000.0001) %MON dynstat_eta_del2             =   9.0232684282864E-09
(PID.TID 0000.0001) %MON dynstat_uvel_max             =   5.3725451068799E-05
(PID.TID 0000.0001) %MON dynstat_uvel_min             =  -3.5958064500192E-04
(PID.TID 0000.0001) %MON dynstat_uvel_mean            =  -7.2224252174433E-09
(PID.TID 0000.0001) %MON dynstat_uvel_sd              =   2.6093881477012E-05
(PID.TID 0000.0001) %MON dynstat_uvel_del2            =   5.5901624606231E-08
(PID.TID 0000.0001) %MON dynstat_vvel_max             =   3.4941553365846E-04
(PID.TID 0000.0001) %MON dynstat_vvel_min             =  -5.1760345010076E-05
(PID.TID 0000.0001) %MON dynstat_vvel_mean            =  -3.9795314733913E-07
(PID.TID 0000.0001) %MON dynstat_vvel_sd              =   2.2618988079369E-05
(PID.TID 0000.0001) %MON dynstat_vvel_del2            =   4.4387737970742E-08
(PID.TID 0000.0001) %MON dynstat_wvel_max             =   1.9044104548061E-06
(PID.TID 0000.0001) %MON dynstat_wvel_min             =  -1.8589912454153E-06
(PID.TID 0000.0001) %MON dynstat_wvel_mean            =  -1.3013954816912E-10
(PID.TID 0000.0001) %MON dynstat_wvel_sd              =   7.8037920703671E-08
(PID.TID 0000.0001) %MON dynstat_wvel_del2            =   6.5295860165527E-10
(PID.TID 0000.0001) %MON dynstat_theta_max            =  -1.9000000000000E+00
(PID.TID 0000.0001) %MON dynstat_theta_min            =  -1.9278181540733E+00
(PID.TID 0000.0001) %MON dynstat_theta_mean           =  -1.9005087812033E+00
(PID.TID 0000.0001) %MON dynstat_theta_sd             =   2.3140341147094E-03
(PID.TID 0000.0001) %MON dynstat_theta_del2           =   2.3901822951301E-06
(PID.TID 0000.0001) %MON dynstat_salt_max             =   3.4400000000000E+01
(PID.TID 0000.0001) %MON dynstat_salt_min             =   3.4388945065571E+01
(PID.TID 0000.0001) %MON dynstat_salt_mean            =   3.4399797810352E+01
(PID.TID 0000.0001) %MON dynstat_salt_sd              =   9.1959715718572E-04
(PID.TID 0000.0001) %MON dynstat_salt_del2            =   9.4985844408462E-07
(PID.TID 0000.0001) %MON advcfl_uvel_max              =   1.0699108083714E-04
(PID.TID 0000.0001) %MON advcfl_vvel_max              =   5.6571528532016E-05
(PID.TID 0000.0001) %MON advcfl_wvel_max              =   1.1426462728837E-04
(PID.TID 0000.0001) %MON advcfl_W_hf_max              =   1.3981077572142E-04
(PID.TID 0000.0001) %MON pe_b_mean                    =  -1.3236448224519E-08
(PID.TID 0000.0001) %MON ke_max                       =   9.7908380184512E-08
(PID.TID 0000.0001) %MON ke_mean                      =   5.8637741429974E-10
(PID.TID 0000.0001) %MON ke_vol                       =   2.9241705273104E+14
(PID.TID 0000.0001) %MON vort_r_min                   =  -5.9159305867834E-08
(PID.TID 0000.0001) %MON vort_r_max                   =   5.7658730860832E-08
(PID.TID 0000.0001) %MON vort_a_mean                  =  -1.4007437267048E-04
(PID.TID 0000.0001) %MON vort_a_sd                    =   1.7682755190987E-06
(PID.TID 0000.0001) %MON vort_p_mean                  =  -1.5039772183286E-04
(PID.TID 0000.0001) %MON vort_p_sd                    =   8.7077413262938E-05
(PID.TID 0000.0001) %MON surfExpan_theta_mean         =  -3.4057331002531E-12
(PID.TID 0000.0001) %MON surfExpan_salt_mean          =  -1.3534383339978E-12
(PID.TID 0000.0001) // =======================================================
(PID.TID 0000.0001) // End MONITOR dynamic field statistics
(PID.TID 0000.0001) // =======================================================
 cg2d: Sum(rhs),rhsMax =  -3.55271367880050E-14  1.32088177537983E-05
(PID.TID 0000.0001)      cg2d_init_res =   1.35322451649130E+00
(PID.TID 0000.0001)      cg2d_iters(min,last) =      -1     215
(PID.TID 0000.0001)      cg2d_last_res =   7.56098454195599E-14
(PID.TID 0000.0001) // =======================================================
(PID.TID 0000.0001) // Begin MONITOR dynamic field statistics
(PID.TID 0000.0001) // =======================================================
(PID.TID 0000.0001) %MON time_tsnumber                =                    10
(PID.TID 0000.0001) %MON time_secondsf                =   1.8000000000000E+04
(PID.TID 0000.0001) %MON dynstat_eta_max              =   4.5518039118271E-05
(PID.TID 0000.0001) %MON dynstat_eta_min              =  -3.6654550472484E-05
(PID.TID 0000.0001) %MON dynstat_eta_mean             =  -1.4906406598448E-20
(PID.TID 0000.0001) %MON dynstat_eta_sd               =   1.5433691650802E-05
(PID.TID 0000.0001) %MON dynstat_eta_del2             =   9.3230955720616E-09
(PID.TID 0000.0001) %MON dynstat_uvel_max             =   6.7556889438277E-05
(PID.TID 0000.0001) %MON dynstat_uvel_min             =  -4.4934842292635E-04
(PID.TID 0000.0001) %MON dynstat_uvel_mean            =  -1.0429360607233E-08
(PID.TID 0000.0001) %MON dynstat_uvel_sd              =   3.2710192913015E-05
(PID.TID 0000.0001) %MON dynstat_uvel_del2            =   6.9712648782187E-08
(PID.TID 0000.0001) %MON dynstat_vvel_max             =   3.7955616316759E-04
(PID.TID 0000.0001) %MON dynstat_vvel_min             =  -5.7032557225669E-05
(PID.TID 0000.0001) %MON dynstat_vvel_mean            =  -3.1094401393495E-07
(PID.TID 0000.0001) %MON dynstat_vvel_sd              =   2.4512727851737E-05
(PID.TID 0000.0001) %MON dynstat_vvel_del2            =   4.8243992341422E-08
(PID.TID 0000.0001) %MON dynstat_wvel_max             =   2.3286806218376E-06
(PID.TID 0000.0001) %MON dynstat_wvel_min             =  -2.2612903021475E-06
(PID.TID 0000.0001) %MON dynstat_wvel_mean            =  -9.2614856273435E-11
(PID.TID 0000.0001) %MON dynstat_wvel_sd              =   9.1068539744383E-08
(PID.TID 0000.0001) %MON dynstat_wvel_del2            =   7.1751589081356E-10
(PID.TID 0000.0001) %MON dynstat_theta_max            =  -1.9000000000000E+00
(PID.TID 0000.0001) %MON dynstat_theta_min            =  -1.9308313481045E+00
(PID.TID 0000.0001) %MON dynstat_theta_mean           =  -1.9005639084113E+00
(PID.TID 0000.0001) %MON dynstat_theta_sd             =   2.5642521344700E-03
(PID.TID 0000.0001) %MON dynstat_theta_del2           =   2.6435664075047E-06
(PID.TID 0000.0001) %MON dynstat_salt_max             =   3.4400000000000E+01
(PID.TID 0000.0001) %MON dynstat_salt_min             =   3.4387747622263E+01
(PID.TID 0000.0001) %MON dynstat_salt_mean            =   3.4399775902800E+01
(PID.TID 0000.0001) %MON dynstat_salt_sd              =   1.0190337982386E-03
(PID.TID 0000.0001) %MON dynstat_salt_del2            =   1.0505532903423E-06
(PID.TID 0000.0001) %MON advcfl_uvel_max              =   1.3370094889589E-04
(PID.TID 0000.0001) %MON advcfl_vvel_max              =   6.1451395962052E-05
(PID.TID 0000.0001) %MON advcfl_wvel_max              =   1.3972083731026E-04
(PID.TID 0000.0001) %MON advcfl_W_hf_max              =   1.6794293816798E-04
(PID.TID 0000.0001) %MON pe_b_mean                    =  -1.4656892830164E-08
(PID.TID 0000.0001) %MON ke_max                       =   1.3992233887299E-07
(PID.TID 0000.0001) %MON ke_mean                      =   8.2101285495934E-10
(PID.TID 0000.0001) %MON ke_vol                       =   2.9241705273104E+14
(PID.TID 0000.0001) %MON vort_r_min                   =  -6.4262395308394E-08
(PID.TID 0000.0001) %MON vort_r_max                   =   6.2489614509137E-08
(PID.TID 0000.0001) %MON vort_a_mean                  =  -1.4007437265242E-04
(PID.TID 0000.0001) %MON vort_a_sd                    =   1.7682752399613E-06
(PID.TID 0000.0001) %MON vort_p_mean                  =  -1.5039772181348E-04
(PID.TID 0000.0001) %MON vort_p_sd                    =   8.7076449198399E-05
(PID.TID 0000.0001) %MON surfExpan_theta_mean         =  -2.6685713663029E-12
(PID.TID 0000.0001) %MON surfExpan_salt_mean          =  -1.0604902609590E-12
(PID.TID 0000.0001) // =======================================================
(PID.TID 0000.0001) // End MONITOR dynamic field statistics
(PID.TID 0000.0001) // =======================================================
 cg2d: Sum(rhs),rhsMax =  -7.10542735760100E-15  1.44413323430963E-05
(PID.TID 0000.0001)      cg2d_init_res =   1.32430406485690E+00
(PID.TID 0000.0001)      cg2d_iters(min,last) =      -1     214
(PID.TID 0000.0001)      cg2d_last_res =   8.56369606592742E-14
(PID.TID 0000.0001) // =======================================================
(PID.TID 0000.0001) // Begin MONITOR dynamic field statistics
(PID.TID 0000.0001) // =======================================================
(PID.TID 0000.0001) %MON time_tsnumber                =                    11
(PID.TID 0000.0001) %MON time_secondsf                =   1.9800000000000E+04
(PID.TID 0000.0001) %MON dynstat_eta_max              =   4.9858273528869E-05
(PID.TID 0000.0001) %MON dynstat_eta_min              =  -4.2231745793078E-05
(PID.TID 0000.0001) %MON dynstat_eta_mean             =   8.5179466276843E-21
(PID.TID 0000.0001) %MON dynstat_eta_sd               =   1.6768170429948E-05
(PID.TID 0000.0001) %MON dynstat_eta_del2             =   9.5547259983944E-09
(PID.TID 0000.0001) %MON dynstat_uvel_max             =   8.2026776789710E-05
(PID.TID 0000.0001) %MON dynstat_uvel_min             =  -5.4276702414924E-04
(PID.TID 0000.0001) %MON dynstat_uvel_mean            =  -9.1403189065136E-09
(PID.TID 0000.0001) %MON dynstat_uvel_sd              =   3.9618244477568E-05
(PID.TID 0000.0001) %MON dynstat_uvel_del2            =   8.4079890854662E-08
(PID.TID 0000.0001) %MON dynstat_vvel_max             =   3.9914975799817E-04
(PID.TID 0000.0001) %MON dynstat_vvel_min             =  -6.0909342790616E-05
(PID.TID 0000.0001) %MON dynstat_vvel_mean            =  -2.0659728189881E-07
(PID.TID 0000.0001) %MON dynstat_vvel_sd              =   2.5666016056459E-05
(PID.TID 0000.0001) %MON dynstat_vvel_del2            =   5.0785784656559E-08
(PID.TID 0000.0001) %MON dynstat_wvel_max             =   2.7602444350351E-06
(PID.TID 0000.0001) %MON dynstat_wvel_min             =  -2.6679135832228E-06
(PID.TID 0000.0001) %MON dynstat_wvel_mean            =  -5.1316930216682E-11
(PID.TID 0000.0001) %MON dynstat_wvel_sd              =   1.0383799305209E-07
(PID.TID 0000.0001) %MON dynstat_wvel_del2            =   7.6650913092927E-10
(PID.TID 0000.0001) %MON dynstat_theta_max            =  -1.9000000000000E+00
(PID.TID 0000.0001) %MON dynstat_theta_min            =  -1.9338295585749E+00
(PID.TID 0000.0001) %MON dynstat_theta_mean           =  -1.9006187638899E+00
(PID.TID 0000.0001) %MON dynstat_theta_sd             =   2.8131370166326E-03
(PID.TID 0000.0001) %MON dynstat_theta_del2           =   2.8946393462509E-06
(PID.TID 0000.0001) %MON dynstat_salt_max             =   3.4400000000000E+01
(PID.TID 0000.0001) %MON dynstat_salt_min             =   3.4386556133422E+01
(PID.TID 0000.0001) %MON dynstat_salt_mean            =   3.4399754103232E+01
(PID.TID 0000.0001) %MON dynstat_salt_sd              =   1.1179406504100E-03
(PID.TID 0000.0001) %MON dynstat_salt_del2            =   1.1503296762000E-06
(PID.TID 0000.0001) %MON advcfl_uvel_max              =   1.6149709769883E-04
(PID.TID 0000.0001) %MON advcfl_vvel_max              =   6.4623663655469E-05
(PID.TID 0000.0001) %MON advcfl_wvel_max              =   1.6561466610210E-04
(PID.TID 0000.0001) %MON advcfl_W_hf_max              =   1.9584530788635E-04
(PID.TID 0000.0001) %MON pe_b_mean                    =  -1.5733221900818E-08
(PID.TID 0000.0001) %MON ke_max                       =   1.8993026706050E-07
(PID.TID 0000.0001) %MON ke_mean                      =   1.0943070921460E-09
(PID.TID 0000.0001) %MON ke_vol                       =   2.9241705273104E+14
(PID.TID 0000.0001) %MON vort_r_min                   =  -6.7579773495608E-08
(PID.TID 0000.0001) %MON vort_r_max                   =   6.5551687143762E-08
(PID.TID 0000.0001) %MON vort_a_mean                  =  -1.4007437264564E-04
(PID.TID 0000.0001) %MON vort_a_sd                    =   1.7682749710871E-06
(PID.TID 0000.0001) %MON vort_p_mean                  =  -1.5039772180620E-04
(PID.TID 0000.0001) %MON vort_p_sd                    =   8.7075442316909E-05
(PID.TID 0000.0001) %MON surfExpan_theta_mean         =  -1.5955287146410E-12
(PID.TID 0000.0001) %MON surfExpan_salt_mean          =  -6.3406311118700E-13
(PID.TID 0000.0001) // =======================================================
(PID.TID 0000.0001) // End MONITOR dynamic field statistics
(PID.TID 0000.0001) // =======================================================
 cg2d: Sum(rhs),rhsMax =   2.77111666946439E-13  1.55639030134970E-05
(PID.TID 0000.0001)      cg2d_init_res =   1.31700995721879E+00
(PID.TID 0000.0001)      cg2d_iters(min,last) =      -1     214
(PID.TID 0000.0001)      cg2d_last_res =   7.79743722864686E-14
(PID.TID 0000.0001) // =======================================================
(PID.TID 0000.0001) // Begin MONITOR dynamic field statistics
(PID.TID 0000.0001) // =======================================================
(PID.TID 0000.0001) %MON time_tsnumber                =                    12
(PID.TID 0000.0001) %MON time_secondsf                =   2.1600000000000E+04
(PID.TID 0000.0001) %MON dynstat_eta_max              =   5.3277056493280E-05
(PID.TID 0000.0001) %MON dynstat_eta_min              =  -4.8203107409753E-05
(PID.TID 0000.0001) %MON dynstat_eta_mean             =  -1.9165379912290E-20
(PID.TID 0000.0001) %MON dynstat_eta_sd               =   1.7828078146342E-05
(PID.TID 0000.0001) %MON dynstat_eta_del2             =   9.7570358493983E-09
(PID.TID 0000.0001) %MON dynstat_uvel_max             =   9.6684159655123E-05
(PID.TID 0000.0001) %MON dynstat_uvel_min             =  -6.3698400499701E-04
(PID.TID 0000.0001) %MON dynstat_uvel_mean            =  -3.0950832082008E-09
(PID.TID 0000.0001) %MON dynstat_uvel_sd              =   4.6603455206024E-05
(PID.TID 0000.0001) %MON dynstat_uvel_del2            =   9.8588050298893E-08
(PID.TID 0000.0001) %MON dynstat_vvel_max             =   4.0774834530562E-04
(PID.TID 0000.0001) %MON dynstat_vvel_min             =  -6.3276524694802E-05
(PID.TID 0000.0001) %MON dynstat_vvel_mean            =  -9.8409101651101E-08
(PID.TID 0000.0001) %MON dynstat_vvel_sd              =   2.6038393397981E-05
(PID.TID 0000.0001) %MON dynstat_vvel_del2            =   5.1960355162396E-08
(PID.TID 0000.0001) %MON dynstat_wvel_max             =   3.1865910315038E-06
(PID.TID 0000.0001) %MON dynstat_wvel_min             =  -3.0670249105422E-06
(PID.TID 0000.0001) %MON dynstat_wvel_mean            =  -1.0732504465584E-11
(PID.TID 0000.0001) %MON dynstat_wvel_sd              =   1.1612901500972E-07
(PID.TID 0000.0001) %MON dynstat_wvel_del2            =   7.9971499847064E-10
(PID.TID 0000.0001) %MON dynstat_theta_max            =  -1.9000000000000E+00
(PID.TID 0000.0001) %MON dynstat_theta_min            =  -1.9368128857198E+00
(PID.TID 0000.0001) %MON dynstat_theta_mean           =  -1.9006733490461E+00
(PID.TID 0000.0001) %MON dynstat_theta_sd             =   3.0606960915245E-03
(PID.TID 0000.0001) %MON dynstat_theta_del2           =   3.1434247649503E-06
(PID.TID 0000.0001) %MON dynstat_salt_max             =   3.4400000000000E+01
(PID.TID 0000.0001) %MON dynstat_salt_min             =   3.4385370559215E+01
(PID.TID 0000.0001) %MON dynstat_salt_mean            =   3.4399732411092E+01
(PID.TID 0000.0001) %MON dynstat_salt_sd              =   1.2163206267720E-03
(PID.TID 0000.0001) %MON dynstat_salt_del2            =   1.2491970015912E-06
(PID.TID 0000.0001) %MON advcfl_uvel_max              =   1.8953079960751E-04
(PID.TID 0000.0001) %MON advcfl_vvel_max              =   6.6015803329700E-05
(PID.TID 0000.0001) %MON advcfl_wvel_max              =   1.9119546189023E-04
(PID.TID 0000.0001) %MON advcfl_W_hf_max              =   2.2272405220265E-04
(PID.TID 0000.0001) %MON pe_b_mean                    =  -1.6457693189584E-08
(PID.TID 0000.0001) %MON ke_max                       =   2.4669082441320E-07
(PID.TID 0000.0001) %MON ke_mean                      =   1.3987970665414E-09
(PID.TID 0000.0001) %MON ke_vol                       =   2.9241705273104E+14
(PID.TID 0000.0001) %MON vort_r_min                   =  -6.9035594452470E-08
(PID.TID 0000.0001) %MON vort_r_max                   =   6.6779684655953E-08
(PID.TID 0000.0001) %MON vort_a_mean                  =  -1.4007437265135E-04
(PID.TID 0000.0001) %MON vort_a_sd                    =   1.7682747216981E-06
(PID.TID 0000.0001) %MON vort_p_mean                  =  -1.5039772181232E-04
(PID.TID 0000.0001) %MON vort_p_sd                    =   8.7074423749752E-05
(PID.TID 0000.0001) %MON surfExpan_theta_mean         =  -3.1377107989310E-13
(PID.TID 0000.0001) %MON surfExpan_salt_mean          =  -1.2469262715089E-13
(PID.TID 0000.0001) // =======================================================
(PID.TID 0000.0001) // End MONITOR dynamic field statistics
(PID.TID 0000.0001) // =======================================================
 cg2d: Sum(rhs),rhsMax =  -2.41584530158434E-13  1.72104535642761E-05
(PID.TID 0000.0001)      cg2d_init_res =   1.27673877642327E+00
(PID.TID 0000.0001)      cg2d_iters(min,last) =      -1     213
(PID.TID 0000.0001)      cg2d_last_res =   9.98656563093117E-14
(PID.TID 0000.0001) // =======================================================
(PID.TID 0000.0001) // Begin MONITOR dynamic field statistics
(PID.TID 0000.0001) // =======================================================
(PID.TID 0000.0001) %MON time_tsnumber                =                    13
(PID.TID 0000.0001) %MON time_secondsf                =   2.3400000000000E+04
(PID.TID 0000.0001) %MON dynstat_eta_max              =   5.5759831647428E-05
(PID.TID 0000.0001) %MON dynstat_eta_min              =  -5.4407986778326E-05
(PID.TID 0000.0001) %MON dynstat_eta_mean             =  -5.3237166423027E-21
(PID.TID 0000.0001) %MON dynstat_eta_sd               =   1.8649047849232E-05
(PID.TID 0000.0001) %MON dynstat_eta_del2             =   9.9763935897408E-09
(PID.TID 0000.0001) %MON dynstat_uvel_max             =   1.1108638636308E-04
(PID.TID 0000.0001) %MON dynstat_uvel_min             =  -7.2924032756786E-04
(PID.TID 0000.0001) %MON dynstat_uvel_mean            =   7.1400033846963E-09
(PID.TID 0000.0001) %MON dynstat_uvel_sd              =   5.3455483674104E-05
(PID.TID 0000.0001) %MON dynstat_uvel_del2            =   1.1284248190672E-07
(PID.TID 0000.0001) %MON dynstat_vvel_max             =   4.0565836858765E-04
(PID.TID 0000.0001) %MON dynstat_vvel_min             =  -6.4122344850333E-05
(PID.TID 0000.0001) %MON dynstat_vvel_mean            =   7.2902851179604E-10
(PID.TID 0000.0001) %MON dynstat_vvel_sd              =   2.5642989980401E-05
(PID.TID 0000.0001) %MON dynstat_vvel_del2            =   5.1808451076831E-08
(PID.TID 0000.0001) %MON dynstat_wvel_max             =   3.5963924695817E-06
(PID.TID 0000.0001) %MON dynstat_wvel_min             =  -3.4479999469951E-06
(PID.TID 0000.0001) %MON dynstat_wvel_mean            =   2.4895611146885E-11
(PID.TID 0000.0001) %MON dynstat_wvel_sd              =   1.2776110456699E-07
(PID.TID 0000.0001) %MON dynstat_wvel_del2            =   8.1820625369761E-10
(PID.TID 0000.0001) %MON dynstat_theta_max            =  -1.9000000000000E+00
(PID.TID 0000.0001) %MON dynstat_theta_min            =  -1.9397814293065E+00
(PID.TID 0000.0001) %MON dynstat_theta_mean           =  -1.9007276652790E+00
(PID.TID 0000.0001) %MON dynstat_theta_sd             =   3.3069366447664E-03
(PID.TID 0000.0001) %MON dynstat_theta_del2           =   3.3899458506894E-06
(PID.TID 0000.0001) %MON dynstat_salt_max             =   3.4400000000000E+01
(PID.TID 0000.0001) %MON dynstat_salt_min             =   3.4384190859994E+01
(PID.TID 0000.0001) %MON dynstat_salt_mean            =   3.4399710825820E+01
(PID.TID 0000.0001) %MON dynstat_salt_sd              =   1.3141766226304E-03
(PID.TID 0000.0001) %MON dynstat_salt_del2            =   1.3471644810639E-06
(PID.TID 0000.0001) %MON advcfl_uvel_max              =   2.1698111931496E-04
(PID.TID 0000.0001) %MON advcfl_vvel_max              =   6.5677429198779E-05
(PID.TID 0000.0001) %MON advcfl_wvel_max              =   2.1578354817490E-04
(PID.TID 0000.0001) %MON advcfl_W_hf_max              =   2.4791307927145E-04
(PID.TID 0000.0001) %MON pe_b_mean                    =  -1.6862432088507E-08
(PID.TID 0000.0001) %MON ke_max                       =   3.0836674053504E-07
(PID.TID 0000.0001) %MON ke_mean                      =   1.7245023410315E-09
(PID.TID 0000.0001) %MON ke_vol                       =   2.9241705273104E+14
(PID.TID 0000.0001) %MON vort_r_min                   =  -6.8681731363558E-08
(PID.TID 0000.0001) %MON vort_r_max                   =   6.6233531616793E-08
(PID.TID 0000.0001) %MON vort_a_mean                  =  -1.4007437266853E-04
(PID.TID 0000.0001) %MON vort_a_sd                    =   1.7682745008892E-06
(PID.TID 0000.0001) %MON vort_p_mean                  =  -1.5039772183077E-04
(PID.TID 0000.0001) %MON vort_p_sd                    =   8.7073424107665E-05
(PID.TID 0000.0001) %MON surfExpan_theta_mean         =   1.0081478950569E-12
(PID.TID 0000.0001) %MON surfExpan_salt_mean          =   4.0063797350623E-13
(PID.TID 0000.0001) // =======================================================
(PID.TID 0000.0001) // End MONITOR dynamic field statistics
(PID.TID 0000.0001) // =======================================================
 cg2d: Sum(rhs),rhsMax =  -9.94759830064140E-14  1.94265677630365E-05
(PID.TID 0000.0001)      cg2d_init_res =   1.21168498785145E+00
(PID.TID 0000.0001)      cg2d_iters(min,last) =      -1     213
(PID.TID 0000.0001)      cg2d_last_res =   9.20378180684136E-14
(PID.TID 0000.0001) // =======================================================
(PID.TID 0000.0001) // Begin MONITOR dynamic field statistics
(PID.TID 0000.0001) // =======================================================
(PID.TID 0000.0001) %MON time_tsnumber                =                    14
(PID.TID 0000.0001) %MON time_secondsf                =   2.5200000000000E+04
(PID.TID 0000.0001) %MON dynstat_eta_max              =   5.7379893721968E-05
(PID.TID 0000.0001) %MON dynstat_eta_min              =  -6.0653574268776E-05
(PID.TID 0000.0001) %MON dynstat_eta_mean             =   1.1712176613066E-20
(PID.TID 0000.0001) %MON dynstat_eta_sd               =   1.9294839343357E-05
(PID.TID 0000.0001) %MON dynstat_eta_del2             =   1.0265721950334E-08
(PID.TID 0000.0001) %MON dynstat_uvel_max             =   1.2482785130827E-04
(PID.TID 0000.0001) %MON dynstat_uvel_min             =  -8.1704740837322E-04
(PID.TID 0000.0001) %MON dynstat_uvel_mean            =   2.0512480388123E-08
(PID.TID 0000.0001) %MON dynstat_uvel_sd              =   5.9981821233427E-05
(PID.TID 0000.0001) %MON dynstat_uvel_del2            =   1.2649345626180E-07
(PID.TID 0000.0001) %MON dynstat_vvel_max             =   3.9391887358830E-04
(PID.TID 0000.0001) %MON dynstat_vvel_min             =  -6.3529093524899E-05
(PID.TID 0000.0001) %MON dynstat_vvel_mean            =   7.9993278180363E-08
(PID.TID 0000.0001) %MON dynstat_vvel_sd              =   2.4543220135824E-05
(PID.TID 0000.0001) %MON dynstat_vvel_del2            =   5.0455331454596E-08
(PID.TID 0000.0001) %MON dynstat_wvel_max             =   3.9801525186592E-06
(PID.TID 0000.0001) %MON dynstat_wvel_min             =  -3.8020288145148E-06
(PID.TID 0000.0001) %MON dynstat_wvel_mean            =   5.1972073279857E-11
(PID.TID 0000.0001) %MON dynstat_wvel_sd              =   1.3859059995787E-07
(PID.TID 0000.0001) %MON dynstat_wvel_del2            =   8.2417720759274E-10
(PID.TID 0000.0001) %MON dynstat_theta_max            =  -1.9000000000000E+00
(PID.TID 0000.0001) %MON dynstat_theta_min            =  -1.9427352874237E+00
(PID.TID 0000.0001) %MON dynstat_theta_mean           =  -1.9007817139799E+00
(PID.TID 0000.0001) %MON dynstat_theta_sd             =   3.5518659170028E-03
(PID.TID 0000.0001) %MON dynstat_theta_del2           =   3.6342253967965E-06
(PID.TID 0000.0001) %MON dynstat_salt_max             =   3.4400000000000E+01
(PID.TID 0000.0001) %MON dynstat_salt_min             =   3.4383016996778E+01
(PID.TID 0000.0001) %MON dynstat_salt_mean            =   3.4399689346867E+01
(PID.TID 0000.0001) %MON dynstat_salt_sd              =   1.4115115154172E-03
(PID.TID 0000.0001) %MON dynstat_salt_del2            =   1.4442411726868E-06
(PID.TID 0000.0001) %MON advcfl_uvel_max              =   2.4310759361524E-04
(PID.TID 0000.0001) %MON advcfl_vvel_max              =   6.3776766199187E-05
(PID.TID 0000.0001) %MON advcfl_wvel_max              =   2.3880915111955E-04
(PID.TID 0000.0001) %MON advcfl_W_hf_max              =   2.7090843963908E-04
(PID.TID 0000.0001) %MON pe_b_mean                    =  -1.7013263809016E-08
(PID.TID 0000.0001) %MON ke_max                       =   3.7271012412978E-07
(PID.TID 0000.0001) %MON ke_mean                      =   2.0598442396397E-09
(PID.TID 0000.0001) %MON ke_vol                       =   2.9241705273104E+14
(PID.TID 0000.0001) %MON vort_r_min                   =  -6.6685875400813E-08
(PID.TID 0000.0001) %MON vort_r_max                   =   6.4085817212775E-08
(PID.TID 0000.0001) %MON vort_a_mean                  =  -1.4007437269454E-04
(PID.TID 0000.0001) %MON vort_a_sd                    =   1.7682743173679E-06
(PID.TID 0000.0001) %MON vort_p_mean                  =  -1.5039772185869E-04
(PID.TID 0000.0001) %MON vort_p_sd                    =   8.7072471541016E-05
(PID.TID 0000.0001) %MON surfExpan_theta_mean         =   2.1806686532572E-12
(PID.TID 0000.0001) %MON surfExpan_salt_mean          =   8.6659772281203E-13
(PID.TID 0000.0001) // =======================================================
(PID.TID 0000.0001) // End MONITOR dynamic field statistics
(PID.TID 0000.0001) // =======================================================
 cg2d: Sum(rhs),rhsMax =  -3.26849658449646E-13  2.17229937726868E-05
(PID.TID 0000.0001)      cg2d_init_res =   1.15943809196508E+00
(PID.TID 0000.0001)      cg2d_iters(min,last) =      -1     213
(PID.TID 0000.0001)      cg2d_last_res =   8.42404568900866E-14
(PID.TID 0000.0001) // =======================================================
(PID.TID 0000.0001) // Begin MONITOR dynamic field statistics
(PID.TID 0000.0001) // =======================================================
(PID.TID 0000.0001) %MON time_tsnumber                =                    15
(PID.TID 0000.0001) %MON time_secondsf                =   2.7000000000000E+04
(PID.TID 0000.0001) %MON dynstat_eta_max              =   5.8450420355830E-05
(PID.TID 0000.0001) %MON dynstat_eta_min              =  -6.6721469515260E-05
(PID.TID 0000.0001) %MON dynstat_eta_mean             =   6.3884599707632E-21
(PID.TID 0000.0001) %MON dynstat_eta_sd               =   1.9841888421560E-05
(PID.TID 0000.0001) %MON dynstat_eta_del2             =   1.0681219126590E-08
(PID.TID 0000.0001) %MON dynstat_uvel_max             =   1.3756450253379E-04
(PID.TID 0000.0001) %MON dynstat_uvel_min             =  -8.9833525611548E-04
(PID.TID 0000.0001) %MON dynstat_uvel_mean            =   3.5757842813739E-08
(PID.TID 0000.0001) %MON dynstat_uvel_sd              =   6.6019552139837E-05
(PID.TID 0000.0001) %MON dynstat_uvel_del2            =   1.3925560455112E-07
(PID.TID 0000.0001) %MON dynstat_vvel_max             =   3.7400307252968E-04
(PID.TID 0000.0001) %MON dynstat_vvel_min             =  -6.1875770679378E-05
(PID.TID 0000.0001) %MON dynstat_vvel_mean            =   1.3168058811503E-07
(PID.TID 0000.0001) %MON dynstat_vvel_sd              =   2.2846392916327E-05
(PID.TID 0000.0001) %MON dynstat_vvel_del2            =   4.8096961196567E-08
(PID.TID 0000.0001) %MON dynstat_wvel_max             =   4.3306843586979E-06
(PID.TID 0000.0001) %MON dynstat_wvel_min             =  -4.1225599936681E-06
(PID.TID 0000.0001) %MON dynstat_wvel_mean            =   6.7909263886035E-11
(PID.TID 0000.0001) %MON dynstat_wvel_sd              =   1.4851058174691E-07
(PID.TID 0000.0001) %MON dynstat_wvel_del2            =   8.2067189777389E-10
(PID.TID 0000.0001) %MON dynstat_theta_max            =  -1.9000000000000E+00
(PID.TID 0000.0001) %MON dynstat_theta_min            =  -1.9456745553712E+00
(PID.TID 0000.0001) %MON dynstat_theta_mean           =  -1.9008354965323E+00
(PID.TID 0000.0001) %MON dynstat_theta_sd             =   3.7954911040410E-03
(PID.TID 0000.0001) %MON dynstat_theta_del2           =   3.8762858859050E-06
(PID.TID 0000.0001) %MON dynstat_salt_max             =   3.4400000000000E+01
(PID.TID 0000.0001) %MON dynstat_salt_min             =   3.4381848931695E+01
(PID.TID 0000.0001) %MON dynstat_salt_mean            =   3.4399667973680E+01
(PID.TID 0000.0001) %MON dynstat_salt_sd              =   1.5083281647462E-03
(PID.TID 0000.0001) %MON dynstat_salt_del2            =   1.5404360110586E-06
(PID.TID 0000.0001) %MON advcfl_uvel_max              =   2.6729430891751E-04
(PID.TID 0000.0001) %MON advcfl_vvel_max              =   6.0552332253652E-05
(PID.TID 0000.0001) %MON advcfl_wvel_max              =   2.5984106152187E-04
(PID.TID 0000.0001) %MON advcfl_W_hf_max              =   2.9138856922588E-04
(PID.TID 0000.0001) %MON pe_b_mean                    =  -1.7000219722132E-08
(PID.TID 0000.0001) %MON ke_max                       =   4.3729970112020E-07
(PID.TID 0000.0001) %MON ke_mean                      =   2.3927351541937E-09
(PID.TID 0000.0001) %MON ke_vol                       =   2.9241705273104E+14
(PID.TID 0000.0001) %MON vort_r_min                   =  -6.3312918432848E-08
(PID.TID 0000.0001) %MON vort_r_max                   =   6.0602774188433E-08
(PID.TID 0000.0001) %MON vort_a_mean                  =  -1.4007437272569E-04
(PID.TID 0000.0001) %MON vort_a_sd                    =   1.7682741793596E-06
(PID.TID 0000.0001) %MON vort_p_mean                  =  -1.5039772189215E-04
(PID.TID 0000.0001) %MON vort_p_sd                    =   8.7071590042483E-05
(PID.TID 0000.0001) %MON surfExpan_theta_mean         =   3.0184649577534E-12
(PID.TID 0000.0001) %MON surfExpan_salt_mean          =   1.1995379742319E-12
(PID.TID 0000.0001) // =======================================================
(PID.TID 0000.0001) // End MONITOR dynamic field statistics
(PID.TID 0000.0001) // =======================================================
 cg2d: Sum(rhs),rhsMax =   3.55271367880050E-14  2.40769513384739E-05
(PID.TID 0000.0001)      cg2d_init_res =   1.11761663626462E+00
(PID.TID 0000.0001)      cg2d_iters(min,last) =      -1     212
(PID.TID 0000.0001)      cg2d_last_res =   8.29279392964673E-14
(PID.TID 0000.0001) // =======================================================
(PID.TID 0000.0001) // Begin MONITOR dynamic field statistics
(PID.TID 0000.0001) // =======================================================
(PID.TID 0000.0001) %MON time_tsnumber                =                    16
(PID.TID 0000.0001) %MON time_secondsf                =   2.8800000000000E+04
(PID.TID 0000.0001) %MON dynstat_eta_max              =   5.9195791330649E-05
(PID.TID 0000.0001) %MON dynstat_eta_min              =  -7.2389129766008E-05
(PID.TID 0000.0001) %MON dynstat_eta_mean             =   3.1942299853816E-21
(PID.TID 0000.0001) %MON dynstat_eta_sd               =   2.0363885484595E-05
(PID.TID 0000.0001) %MON dynstat_eta_del2             =   1.1276656656813E-08
(PID.TID 0000.0001) %MON dynstat_uvel_max             =   1.4903288854402E-04
(PID.TID 0000.0001) %MON dynstat_uvel_min             =  -9.7156621852624E-04
(PID.TID 0000.0001) %MON dynstat_uvel_mean            =   5.1569286705682E-08
(PID.TID 0000.0001) %MON dynstat_uvel_sd              =   7.1444596331419E-05
(PID.TID 0000.0001) %MON dynstat_uvel_del2            =   1.5092164209281E-07
(PID.TID 0000.0001) %MON dynstat_vvel_max             =   3.4800558161776E-04
(PID.TID 0000.0001) %MON dynstat_vvel_min             =  -5.9330933260729E-05
(PID.TID 0000.0001) %MON dynstat_vvel_mean            =   1.5175931713284E-07
(PID.TID 0000.0001) %MON dynstat_vvel_sd              =   2.0694824030503E-05
(PID.TID 0000.0001) %MON dynstat_vvel_del2            =   4.4982560289923E-08
(PID.TID 0000.0001) %MON dynstat_wvel_max             =   4.6434044859262E-06
(PID.TID 0000.0001) %MON dynstat_wvel_min             =  -4.4055705455652E-06
(PID.TID 0000.0001) %MON dynstat_wvel_mean            =   7.1370881439914E-11
(PID.TID 0000.0001) %MON dynstat_wvel_sd              =   1.5745127028620E-07
(PID.TID 0000.0001) %MON dynstat_wvel_del2            =   8.1122241158625E-10
(PID.TID 0000.0001) %MON dynstat_theta_max            =  -1.9000000000000E+00
(PID.TID 0000.0001) %MON dynstat_theta_min            =  -1.9485993247409E+00
(PID.TID 0000.0001) %MON dynstat_theta_mean           =  -1.9008890143117E+00
(PID.TID 0000.0001) %MON dynstat_theta_sd             =   4.0378193574620E-03
(PID.TID 0000.0001) %MON dynstat_theta_del2           =   4.1161495759762E-06
(PID.TID 0000.0001) %MON dynstat_salt_max             =   3.4400000000000E+01
(PID.TID 0000.0001) %MON dynstat_salt_min             =   3.4380686628348E+01
(PID.TID 0000.0001) %MON dynstat_salt_mean            =   3.4399646705715E+01
(PID.TID 0000.0001) %MON dynstat_salt_sd              =   1.6046294126557E-03
(PID.TID 0000.0001) %MON dynstat_salt_del2            =   1.6357578414929E-06
(PID.TID 0000.0001) %MON advcfl_uvel_max              =   2.8908374594082E-04
(PID.TID 0000.0001) %MON advcfl_vvel_max              =   5.6343252641519E-05
(PID.TID 0000.0001) %MON advcfl_wvel_max              =   2.7860426915557E-04
(PID.TID 0000.0001) %MON advcfl_W_hf_max              =   3.0922083978484E-04
(PID.TID 0000.0001) %MON pe_b_mean                    =  -1.6926207233249E-08
(PID.TID 0000.0001) %MON ke_max                       =   4.9980575123047E-07
(PID.TID 0000.0001) %MON ke_mean                      =   2.7117133134374E-09
(PID.TID 0000.0001) %MON ke_vol                       =   2.9241705273104E+14
(PID.TID 0000.0001) %MON vort_r_min                   =  -5.8901252990095E-08
(PID.TID 0000.0001) %MON vort_r_max                   =   5.6120455855238E-08
(PID.TID 0000.0001) %MON vort_a_mean                  =  -1.4007437275794E-04
(PID.TID 0000.0001) %MON vort_a_sd                    =   1.7682740910661E-06
(PID.TID 0000.0001) %MON vort_p_mean                  =  -1.5039772192677E-04
(PID.TID 0000.0001) %MON vort_p_sd                    =   8.7070798097352E-05
(PID.TID 0000.0001) %MON surfExpan_theta_mean         =   3.3661804554834E-12
(PID.TID 0000.0001) %MON surfExpan_salt_mean          =   1.3377201130120E-12
(PID.TID 0000.0001) // =======================================================
(PID.TID 0000.0001) // End MONITOR dynamic field statistics
(PID.TID 0000.0001) // =======================================================
 cg2d: Sum(rhs),rhsMax =  -3.55271367880050E-15  2.64660603598237E-05
(PID.TID 0000.0001)      cg2d_init_res =   1.08433130059441E+00
(PID.TID 0000.0001)      cg2d_iters(min,last) =      -1     212
(PID.TID 0000.0001)      cg2d_last_res =   7.79249127397718E-14
(PID.TID 0000.0001) // =======================================================
(PID.TID 0000.0001) // Begin MONITOR dynamic field statistics
(PID.TID 0000.0001) // =======================================================
(PID.TID 0000.0001) %MON time_tsnumber                =                    17
(PID.TID 0000.0001) %MON time_secondsf                =   3.0600000000000E+04
(PID.TID 0000.0001) %MON dynstat_eta_max              =   5.9617688586861E-05
(PID.TID 0000.0001) %MON dynstat_eta_min              =  -7.7457856582187E-05
(PID.TID 0000.0001) %MON dynstat_eta_mean             =   2.0230123240750E-20
(PID.TID 0000.0001) %MON dynstat_eta_sd               =   2.0920629319052E-05
(PID.TID 0000.0001) %MON dynstat_eta_del2             =   1.2096689366758E-08
(PID.TID 0000.0001) %MON dynstat_uvel_max             =   1.5906292800063E-04
(PID.TID 0000.0001) %MON dynstat_uvel_min             =  -1.0358065226150E-03
(PID.TID 0000.0001) %MON dynstat_uvel_mean            =   6.6698769087301E-08
(PID.TID 0000.0001) %MON dynstat_uvel_sd              =   7.6177950455924E-05
(PID.TID 0000.0001) %MON dynstat_uvel_del2            =   1.6136989602982E-07
(PID.TID 0000.0001) %MON dynstat_vvel_max             =   3.2075166057067E-04
(PID.TID 0000.0001) %MON dynstat_vvel_min             =  -5.6070644013485E-05
(PID.TID 0000.0001) %MON dynstat_vvel_mean            =   1.3990657307631E-07
(PID.TID 0000.0001) %MON dynstat_vvel_sd              =   1.8255160866129E-05
(PID.TID 0000.0001) %MON dynstat_vvel_del2            =   4.1394749111988E-08
(PID.TID 0000.0001) %MON dynstat_wvel_max             =   4.9164393991289E-06
(PID.TID 0000.0001) %MON dynstat_wvel_min             =  -4.6496584652244E-06
(PID.TID 0000.0001) %MON dynstat_wvel_mean            =   6.2357255468606E-11
(PID.TID 0000.0001) %MON dynstat_wvel_sd              =   1.6538126596517E-07
(PID.TID 0000.0001) %MON dynstat_wvel_del2            =   7.9941942502095E-10
(PID.TID 0000.0001) %MON dynstat_theta_max            =  -1.9000000000000E+00
(PID.TID 0000.0001) %MON dynstat_theta_min            =  -1.9515096827627E+00
(PID.TID 0000.0001) %MON dynstat_theta_mean           =  -1.9009422686862E+00
(PID.TID 0000.0001) %MON dynstat_theta_sd             =   4.2788577856754E-03
(PID.TID 0000.0001) %MON dynstat_theta_del2           =   4.3538385818711E-06
(PID.TID 0000.0001) %MON dynstat_salt_max             =   3.4400000000000E+01
(PID.TID 0000.0001) %MON dynstat_salt_min             =   3.4379530052070E+01
(PID.TID 0000.0001) %MON dynstat_salt_mean            =   3.4399625542426E+01
(PID.TID 0000.0001) %MON dynstat_salt_sd              =   1.7004180840278E-03
(PID.TID 0000.0001) %MON dynstat_salt_del2            =   1.7302154524355E-06
(PID.TID 0000.0001) %MON advcfl_uvel_max              =   3.0819806608930E-04
(PID.TID 0000.0001) %MON advcfl_vvel_max              =   5.1930752842264E-05
(PID.TID 0000.0001) %MON advcfl_wvel_max              =   2.9498636394774E-04
(PID.TID 0000.0001) %MON advcfl_W_hf_max              =   3.2445532448159E-04
(PID.TID 0000.0001) %MON pe_b_mean                    =  -1.6895362428376E-08
(PID.TID 0000.0001) %MON ke_max                       =   5.5823384667618E-07
(PID.TID 0000.0001) %MON ke_mean                      =   3.0070035261899E-09
(PID.TID 0000.0001) %MON ke_vol                       =   2.9241705273104E+14
(PID.TID 0000.0001) %MON vort_r_min                   =  -5.3835834936897E-08
(PID.TID 0000.0001) %MON vort_r_max                   =   5.1046696789118E-08
(PID.TID 0000.0001) %MON vort_a_mean                  =  -1.4007437278729E-04
(PID.TID 0000.0001) %MON vort_a_sd                    =   1.7682740559276E-06
(PID.TID 0000.0001) %MON vort_p_mean                  =  -1.5039772195828E-04
(PID.TID 0000.0001) %MON vort_p_sd                    =   8.7070107755916E-05
(PID.TID 0000.0001) %MON surfExpan_theta_mean         =   3.1202424404615E-12
(PID.TID 0000.0001) %MON surfExpan_salt_mean          =   1.2399843458653E-12
(PID.TID 0000.0001) // =======================================================
(PID.TID 0000.0001) // End MONITOR dynamic field statistics
(PID.TID 0000.0001) // =======================================================
 cg2d: Sum(rhs),rhsMax =   7.10542735760100E-14  2.88695865778624E-05
(PID.TID 0000.0001)      cg2d_init_res =   1.05801647611802E+00
(PID.TID 0000.0001)      cg2d_iters(min,last) =      -1     212
(PID.TID 0000.0001)      cg2d_last_res =   7.05042503244596E-14
(PID.TID 0000.0001) // =======================================================
(PID.TID 0000.0001) // Begin MONITOR dynamic field statistics
(PID.TID 0000.0001) // =======================================================
(PID.TID 0000.0001) %MON time_tsnumber                =                    18
(PID.TID 0000.0001) %MON time_secondsf                =   3.2400000000000E+04
(PID.TID 0000.0001) %MON dynstat_eta_max              =   6.0008652092299E-05
(PID.TID 0000.0001) %MON dynstat_eta_min              =  -8.1778816634927E-05
(PID.TID 0000.0001) %MON dynstat_eta_mean             =  -4.2589733138421E-21
(PID.TID 0000.0001) %MON dynstat_eta_sd               =   2.1553915144684E-05
(PID.TID 0000.0001) %MON dynstat_eta_del2             =   1.3171804248630E-08
(PID.TID 0000.0001) %MON dynstat_uvel_max             =   1.6758396968755E-04
(PID.TID 0000.0001) %MON dynstat_uvel_min             =  -1.0907443175219E-03
(PID.TID 0000.0001) %MON dynstat_uvel_mean            =   8.0034710044880E-08
(PID.TID 0000.0001) %MON dynstat_uvel_sd              =   8.0188663557381E-05
(PID.TID 0000.0001) %MON dynstat_uvel_del2            =   1.7056559588344E-07
(PID.TID 0000.0001) %MON dynstat_vvel_max             =   2.9174781107600E-04
(PID.TID 0000.0001) %MON dynstat_vvel_min             =  -5.2385686365181E-05
(PID.TID 0000.0001) %MON dynstat_vvel_mean            =   9.9106221906091E-08
(PID.TID 0000.0001) %MON dynstat_vvel_sd              =   1.5706662181350E-05
(PID.TID 0000.0001) %MON dynstat_vvel_del2            =   3.7628466700708E-08
(PID.TID 0000.0001) %MON dynstat_wvel_max             =   5.1505516476822E-06
(PID.TID 0000.0001) %MON dynstat_wvel_min             =  -4.9188978030290E-06
(PID.TID 0000.0001) %MON dynstat_wvel_mean            =   4.2126077196946E-11
(PID.TID 0000.0001) %MON dynstat_wvel_sd              =   1.7230956314084E-07
(PID.TID 0000.0001) %MON dynstat_wvel_del2            =   7.8846617517825E-10
(PID.TID 0000.0001) %MON dynstat_theta_max            =  -1.9000000000000E+00
(PID.TID 0000.0001) %MON dynstat_theta_min            =  -1.9544057119721E+00
(PID.TID 0000.0001) %MON dynstat_theta_mean           =  -1.9009952610164E+00
(PID.TID 0000.0001) %MON dynstat_theta_sd             =   4.5186134553082E-03
(PID.TID 0000.0001) %MON dynstat_theta_del2           =   4.5893749456520E-06
(PID.TID 0000.0001) %MON dynstat_salt_max             =   3.4400000000000E+01
(PID.TID 0000.0001) %MON dynstat_salt_min             =   3.4378379170062E+01
(PID.TID 0000.0001) %MON dynstat_salt_mean            =   3.4399604483274E+01
(PID.TID 0000.0001) %MON dynstat_salt_sd              =   1.7956969871398E-03
(PID.TID 0000.0001) %MON dynstat_salt_del2            =   1.8238176034020E-06
(PID.TID 0000.0001) %MON advcfl_uvel_max              =   3.2454447999560E-04
(PID.TID 0000.0001) %MON advcfl_vvel_max              =   4.7234933849768E-05
(PID.TID 0000.0001) %MON advcfl_wvel_max              =   3.0903309886093E-04
(PID.TID 0000.0001) %MON advcfl_W_hf_max              =   3.3730717392699E-04
(PID.TID 0000.0001) %MON pe_b_mean                    =  -1.7002428730288E-08
(PID.TID 0000.0001) %MON ke_max                       =   6.1112373145994E-07
(PID.TID 0000.0001) %MON ke_mean                      =   3.2714040993629E-09
(PID.TID 0000.0001) %MON ke_vol                       =   2.9241705273104E+14
(PID.TID 0000.0001) %MON vort_r_min                   =  -4.8519948333075E-08
(PID.TID 0000.0001) %MON vort_r_max                   =   5.3054085485601E-08
(PID.TID 0000.0001) %MON vort_a_mean                  =  -1.4007437281018E-04
(PID.TID 0000.0001) %MON vort_a_sd                    =   1.7682740752146E-06
(PID.TID 0000.0001) %MON vort_p_mean                  =  -1.5039772198286E-04
(PID.TID 0000.0001) %MON vort_p_sd                    =   8.7069524166929E-05
(PID.TID 0000.0001) %MON surfExpan_theta_mean         =   2.2432907509532E-12
(PID.TID 0000.0001) %MON surfExpan_salt_mean          =   8.9148374444789E-13
(PID.TID 0000.0001) // =======================================================
(PID.TID 0000.0001) // End MONITOR dynamic field statistics
(PID.TID 0000.0001) // =======================================================
 cg2d: Sum(rhs),rhsMax =  -1.91846538655227E-13  3.12696359506170E-05
(PID.TID 0000.0001)      cg2d_init_res =   1.03733967042641E+00
(PID.TID 0000.0001)      cg2d_iters(min,last) =      -1     211
(PID.TID 0000.0001)      cg2d_last_res =   9.50332943993349E-14
(PID.TID 0000.0001) // =======================================================
(PID.TID 0000.0001) // Begin MONITOR dynamic field statistics
(PID.TID 0000.0001) // =======================================================
(PID.TID 0000.0001) %MON time_tsnumber                =                    19
(PID.TID 0000.0001) %MON time_secondsf                =   3.4200000000000E+04
(PID.TID 0000.0001) %MON dynstat_eta_max              =   6.0559431353505E-05
(PID.TID 0000.0001) %MON dynstat_eta_min              =  -8.5271455237407E-05
(PID.TID 0000.0001) %MON dynstat_eta_mean             =   1.3841663269987E-20
(PID.TID 0000.0001) %MON dynstat_eta_sd               =   2.2290133028152E-05
(PID.TID 0000.0001) %MON dynstat_eta_del2             =   1.4516976360554E-08
(PID.TID 0000.0001) %MON dynstat_uvel_max             =   1.7462413716295E-04
(PID.TID 0000.0001) %MON dynstat_uvel_min             =  -1.1366824279632E-03
(PID.TID 0000.0001) %MON dynstat_uvel_mean            =   9.0676805532838E-08
(PID.TID 0000.0001) %MON dynstat_uvel_sd              =   8.3493510272615E-05
(PID.TID 0000.0001) %MON dynstat_uvel_del2            =   1.7855629673300E-07
(PID.TID 0000.0001) %MON dynstat_vvel_max             =   2.6324513762990E-04
(PID.TID 0000.0001) %MON dynstat_vvel_min             =  -4.8570936943078E-05
(PID.TID 0000.0001) %MON dynstat_vvel_mean            =   3.4936067479096E-08
(PID.TID 0000.0001) %MON dynstat_vvel_sd              =   1.3229032100249E-05
(PID.TID 0000.0001) %MON dynstat_vvel_del2            =   3.3969677207907E-08
(PID.TID 0000.0001) %MON dynstat_wvel_max             =   5.3585314999326E-06
(PID.TID 0000.0001) %MON dynstat_wvel_min             =  -5.1602854027291E-06
(PID.TID 0000.0001) %MON dynstat_wvel_mean            =   1.2970726188696E-11
(PID.TID 0000.0001) %MON dynstat_wvel_sd              =   1.7828786446721E-07
(PID.TID 0000.0001) %MON dynstat_wvel_del2            =   7.8080390488710E-10
(PID.TID 0000.0001) %MON dynstat_theta_max            =  -1.9000000000000E+00
(PID.TID 0000.0001) %MON dynstat_theta_min            =  -1.9572874902230E+00
(PID.TID 0000.0001) %MON dynstat_theta_mean           =  -1.9010479926559E+00
(PID.TID 0000.0001) %MON dynstat_theta_sd             =   4.7570933927532E-03
(PID.TID 0000.0001) %MON dynstat_theta_del2           =   4.8227806899275E-06
(PID.TID 0000.0001) %MON dynstat_salt_max             =   3.4400000000000E+01
(PID.TID 0000.0001) %MON dynstat_salt_min             =   3.4377233951385E+01
(PID.TID 0000.0001) %MON dynstat_salt_mean            =   3.4399583527721E+01
(PID.TID 0000.0001) %MON dynstat_salt_sd              =   1.8904689142802E-03
(PID.TID 0000.0001) %MON dynstat_salt_del2            =   1.9165730461771E-06
(PID.TID 0000.0001) %MON advcfl_uvel_max              =   3.3821309135177E-04
(PID.TID 0000.0001) %MON advcfl_vvel_max              =   4.2620256914225E-05
(PID.TID 0000.0001) %MON advcfl_wvel_max              =   3.2151188999596E-04
(PID.TID 0000.0001) %MON advcfl_W_hf_max              =   3.4812952872401E-04
(PID.TID 0000.0001) %MON pe_b_mean                    =  -1.7324190550101E-08
(PID.TID 0000.0001) %MON ke_max                       =   6.5768232819225E-07
(PID.TID 0000.0001) %MON ke_mean                      =   3.5009286638985E-09
(PID.TID 0000.0001) %MON ke_vol                       =   2.9241705273104E+14
(PID.TID 0000.0001) %MON vort_r_min                   =  -4.3347580413505E-08
(PID.TID 0000.0001) %MON vort_r_max                   =   5.5935482873500E-08
(PID.TID 0000.0001) %MON vort_a_mean                  =  -1.4007437282384E-04
(PID.TID 0000.0001) %MON vort_a_sd                    =   1.7682741497438E-06
(PID.TID 0000.0001) %MON vort_p_mean                  =  -1.5039772199753E-04
(PID.TID 0000.0001) %MON vort_p_sd                    =   8.7069045577707E-05
(PID.TID 0000.0001) %MON surfExpan_theta_mean         =   7.6924379366615E-13
(PID.TID 0000.0001) %MON surfExpan_salt_mean          =   3.0569748358913E-13
(PID.TID 0000.0001) // =======================================================
(PID.TID 0000.0001) // End MONITOR dynamic field statistics
(PID.TID 0000.0001) // =======================================================
 cg2d: Sum(rhs),rhsMax =   9.23705556488130E-14  3.36521882199354E-05
(PID.TID 0000.0001)      cg2d_init_res =   1.02115717386037E+00
(PID.TID 0000.0001)      cg2d_iters(min,last) =      -1     210
(PID.TID 0000.0001)      cg2d_last_res =   9.62085398726838E-14
(PID.TID 0000.0001) // =======================================================
(PID.TID 0000.0001) // Begin MONITOR dynamic field statistics
(PID.TID 0000.0001) // =======================================================
(PID.TID 0000.0001) %MON time_tsnumber                =                    20
(PID.TID 0000.0001) %MON time_secondsf                =   3.6000000000000E+04
(PID.TID 0000.0001) %MON dynstat_eta_max              =   6.1346948554980E-05
(PID.TID 0000.0001) %MON dynstat_eta_min              =  -8.7931920722858E-05
(PID.TID 0000.0001) %MON dynstat_eta_mean             =   3.1942299853816E-21
(PID.TID 0000.0001) %MON dynstat_eta_sd               =   2.3146279696002E-05
(PID.TID 0000.0001) %MON dynstat_eta_del2             =   1.6133983391282E-08
(PID.TID 0000.0001) %MON dynstat_uvel_max             =   1.8030301420019E-04
(PID.TID 0000.0001) %MON dynstat_uvel_min             =  -1.1744837308588E-03
(PID.TID 0000.0001) %MON dynstat_uvel_mean            =   9.8002521974500E-08
(PID.TID 0000.0001) %MON dynstat_uvel_sd              =   8.6153542136006E-05
(PID.TID 0000.0001) %MON dynstat_uvel_del2            =   1.8546217034434E-07
(PID.TID 0000.0001) %MON dynstat_vvel_max             =   2.3732741498829E-04
(PID.TID 0000.0001) %MON dynstat_vvel_min             =  -4.4907061126636E-05
(PID.TID 0000.0001) %MON dynstat_vvel_mean            =  -4.5311727022131E-08
(PID.TID 0000.0001) %MON dynstat_vvel_sd              =   1.0989953750634E-05
(PID.TID 0000.0001) %MON dynstat_vvel_del2            =   3.0674804553652E-08
(PID.TID 0000.0001) %MON dynstat_wvel_max             =   5.5515843022530E-06
(PID.TID 0000.0001) %MON dynstat_wvel_min             =  -5.3686859984651E-06
(PID.TID 0000.0001) %MON dynstat_wvel_mean            =  -2.2101669441837E-11
(PID.TID 0000.0001) %MON dynstat_wvel_sd              =   1.8341239086044E-07
(PID.TID 0000.0001) %MON dynstat_wvel_del2            =   7.7791348692659E-10
(PID.TID 0000.0001) %MON dynstat_theta_max            =  -1.8999998710856E+00
(PID.TID 0000.0001) %MON dynstat_theta_min            =  -1.9601550910399E+00
(PID.TID 0000.0001) %MON dynstat_theta_mean           =  -1.9011004649513E+00
(PID.TID 0000.0001) %MON dynstat_theta_sd             =   4.9943045856996E-03
(PID.TID 0000.0001) %MON dynstat_theta_del2           =   5.0540778499977E-06
(PID.TID 0000.0001) %MON dynstat_salt_max             =   3.4400000051231E+01
(PID.TID 0000.0001) %MON dynstat_salt_min             =   3.4376094366821E+01
(PID.TID 0000.0001) %MON dynstat_salt_mean            =   3.4399562675231E+01
(PID.TID 0000.0001) %MON dynstat_salt_sd              =   1.9847366423571E-03
(PID.TID 0000.0001) %MON dynstat_salt_del2            =   2.0084905375890E-06
(PID.TID 0000.0001) %MON advcfl_uvel_max              =   3.4946064404979E-04
(PID.TID 0000.0001) %MON advcfl_vvel_max              =   3.8424092048417E-05
(PID.TID 0000.0001) %MON advcfl_wvel_max              =   3.3309505813518E-04
(PID.TID 0000.0001) %MON advcfl_W_hf_max              =   3.5737937523820E-04
(PID.TID 0000.0001) %MON pe_b_mean                    =  -1.7913613462509E-08
(PID.TID 0000.0001) %MON ke_max                       =   6.9784641529443E-07
(PID.TID 0000.0001) %MON ke_mean                      =   3.6951629926433E-09
(PID.TID 0000.0001) %MON ke_vol                       =   2.9241705273104E+14
(PID.TID 0000.0001) %MON vort_r_min                   =  -3.8678162360442E-08
(PID.TID 0000.0001) %MON vort_r_max                   =   5.8468023033748E-08
(PID.TID 0000.0001) %MON vort_a_mean                  =  -1.4007437282646E-04
(PID.TID 0000.0001) %MON vort_a_sd                    =   1.7682742790474E-06
(PID.TID 0000.0001) %MON vort_p_mean                  =  -1.5039772200034E-04
(PID.TID 0000.0001) %MON vort_p_sd                    =   8.7068663776074E-05
(PID.TID 0000.0001) %MON surfExpan_theta_mean         =  -1.2012754053259E-12
(PID.TID 0000.0001) %MON surfExpan_salt_mean          =  -4.7738684604247E-13
(PID.TID 0000.0001) // =======================================================
(PID.TID 0000.0001) // End MONITOR dynamic field statistics
(PID.TID 0000.0001) // =======================================================
(PID.TID 0000.0001) %CHECKPOINT        20 ckptA
(PID.TID 0000.0001)   Seconds in section "ALL                    [THE_MODEL_MAIN]":
(PID.TID 0000.0001)           User time:   43.310000000000002
(PID.TID 0000.0001)         System time:  0.14999999999999999
(PID.TID 0000.0001)     Wall clock time:   48.442487001419067
(PID.TID 0000.0001)          No. starts:           1
(PID.TID 0000.0001)           No. stops:           1
(PID.TID 0000.0001)   Seconds in section "INITIALISE_FIXED       [THE_MODEL_MAIN]":
(PID.TID 0000.0001)           User time:  0.48999999999999999
(PID.TID 0000.0001)         System time:  8.00000000000000017E-002
(PID.TID 0000.0001)     Wall clock time:   3.4273910522460938
(PID.TID 0000.0001)          No. starts:           1
(PID.TID 0000.0001)           No. stops:           1
(PID.TID 0000.0001)   Seconds in section "THE_MAIN_LOOP          [THE_MODEL_MAIN]":
(PID.TID 0000.0001)           User time:   42.820000000000000
(PID.TID 0000.0001)         System time:  6.99999999999999928E-002
(PID.TID 0000.0001)     Wall clock time:   45.013597965240479
(PID.TID 0000.0001)          No. starts:           1
(PID.TID 0000.0001)           No. stops:           1
(PID.TID 0000.0001)   Seconds in section "INITIALISE_VARIA    [THE_MAIN_LOOP]":
(PID.TID 0000.0001)           User time:  0.56000000000000005
(PID.TID 0000.0001)         System time:  3.99999999999999939E-002
(PID.TID 0000.0001)     Wall clock time:   1.3944091796875000
(PID.TID 0000.0001)          No. starts:           1
(PID.TID 0000.0001)           No. stops:           1
(PID.TID 0000.0001)   Seconds in section "MAIN LOOP           [THE_MAIN_LOOP]":
(PID.TID 0000.0001)           User time:   42.260000000000005
(PID.TID 0000.0001)         System time:  2.99999999999999989E-002
(PID.TID 0000.0001)     Wall clock time:   43.619143962860107
(PID.TID 0000.0001)          No. starts:           1
(PID.TID 0000.0001)           No. stops:           1
(PID.TID 0000.0001)   Seconds in section "MAIN_DO_LOOP        [THE_MAIN_LOOP]":
(PID.TID 0000.0001)           User time:   42.260000000000005
(PID.TID 0000.0001)         System time:  2.99999999999999989E-002
(PID.TID 0000.0001)     Wall clock time:   43.619117021560669
(PID.TID 0000.0001)          No. starts:           1
(PID.TID 0000.0001)           No. stops:           1
(PID.TID 0000.0001)   Seconds in section "FORWARD_STEP        [MAIN_DO_LOOP]":
(PID.TID 0000.0001)           User time:   42.259999999999984
(PID.TID 0000.0001)         System time:  2.99999999999999989E-002
(PID.TID 0000.0001)     Wall clock time:   43.618916273117065
(PID.TID 0000.0001)          No. starts:          20
(PID.TID 0000.0001)           No. stops:          20
(PID.TID 0000.0001)   Seconds in section "LOAD_FIELDS_DRIVER  [FORWARD_STEP]":
(PID.TID 0000.0001)           User time:   0.0000000000000000
(PID.TID 0000.0001)         System time:   0.0000000000000000
(PID.TID 0000.0001)     Wall clock time:  5.68389892578125000E-004
(PID.TID 0000.0001)          No. starts:          20
(PID.TID 0000.0001)           No. stops:          20
(PID.TID 0000.0001)   Seconds in section "EXTERNAL_FLDS_LOAD [LOAD_FLDS_DRIVER]":
(PID.TID 0000.0001)           User time:   0.0000000000000000
(PID.TID 0000.0001)         System time:   0.0000000000000000
(PID.TID 0000.0001)     Wall clock time:  1.97887420654296875E-004
(PID.TID 0000.0001)          No. starts:          20
(PID.TID 0000.0001)           No. stops:          20
(PID.TID 0000.0001)   Seconds in section "DO_ATMOSPHERIC_PHYS [FORWARD_STEP]":
(PID.TID 0000.0001)           User time:   0.0000000000000000
(PID.TID 0000.0001)         System time:   0.0000000000000000
(PID.TID 0000.0001)     Wall clock time:  1.92642211914062500E-004
(PID.TID 0000.0001)          No. starts:          20
(PID.TID 0000.0001)           No. stops:          20
(PID.TID 0000.0001)   Seconds in section "DO_OCEANIC_PHYS     [FORWARD_STEP]":
(PID.TID 0000.0001)           User time:  0.75000000000000711
(PID.TID 0000.0001)         System time:   0.0000000000000000
(PID.TID 0000.0001)     Wall clock time:  0.75478219985961914
(PID.TID 0000.0001)          No. starts:          20
(PID.TID 0000.0001)           No. stops:          20
(PID.TID 0000.0001)   Seconds in section "SHELFICE_THERMODYNAMICS [DO_OCEANIC_PHYS]":
(PID.TID 0000.0001)           User time:  0.10999999999999233
(PID.TID 0000.0001)         System time:   0.0000000000000000
(PID.TID 0000.0001)     Wall clock time:  0.10014343261718750
(PID.TID 0000.0001)          No. starts:          20
(PID.TID 0000.0001)           No. stops:          20
(PID.TID 0000.0001)   Seconds in section "THERMODYNAMICS      [FORWARD_STEP]":
(PID.TID 0000.0001)           User time:   6.6599999999999966
(PID.TID 0000.0001)         System time:   0.0000000000000000
(PID.TID 0000.0001)     Wall clock time:   6.6575582027435303
(PID.TID 0000.0001)          No. starts:          20
(PID.TID 0000.0001)           No. stops:          20
(PID.TID 0000.0001)   Seconds in section "DYNAMICS            [FORWARD_STEP]":
(PID.TID 0000.0001)           User time:   16.659999999999997
(PID.TID 0000.0001)         System time:  1.00000000000000089E-002
(PID.TID 0000.0001)     Wall clock time:   16.707349300384521
(PID.TID 0000.0001)          No. starts:          20
(PID.TID 0000.0001)           No. stops:          20
(PID.TID 0000.0001)   Seconds in section "UPDATE_SURF_DR      [FORWARD_STEP]":
(PID.TID 0000.0001)           User time:  0.19999999999998863
(PID.TID 0000.0001)         System time:   0.0000000000000000
(PID.TID 0000.0001)     Wall clock time:  0.19457101821899414
(PID.TID 0000.0001)          No. starts:          20
(PID.TID 0000.0001)           No. stops:          20
(PID.TID 0000.0001)   Seconds in section "SOLVE_FOR_PRESSURE  [FORWARD_STEP]":
(PID.TID 0000.0001)           User time:   9.1100000000000136
(PID.TID 0000.0001)         System time:   0.0000000000000000
(PID.TID 0000.0001)     Wall clock time:   9.1281793117523193
(PID.TID 0000.0001)          No. starts:          20
(PID.TID 0000.0001)           No. stops:          20
(PID.TID 0000.0001)   Seconds in section "MOM_CORRECTION_STEP [FORWARD_STEP]":
(PID.TID 0000.0001)           User time:  0.61999999999999744
(PID.TID 0000.0001)         System time:   0.0000000000000000
(PID.TID 0000.0001)     Wall clock time:  0.63863873481750488
(PID.TID 0000.0001)          No. starts:          20
(PID.TID 0000.0001)           No. stops:          20
(PID.TID 0000.0001)   Seconds in section "INTEGR_CONTINUITY   [FORWARD_STEP]":
(PID.TID 0000.0001)           User time:   1.0200000000000031
(PID.TID 0000.0001)         System time:   0.0000000000000000
(PID.TID 0000.0001)     Wall clock time:   1.0140089988708496
(PID.TID 0000.0001)          No. starts:          20
(PID.TID 0000.0001)           No. stops:          20
(PID.TID 0000.0001)   Seconds in section "TRC_CORRECTION_STEP [FORWARD_STEP]":
(PID.TID 0000.0001)           User time:   1.9599999999999937
(PID.TID 0000.0001)         System time:   0.0000000000000000
(PID.TID 0000.0001)     Wall clock time:   1.9713232517242432
(PID.TID 0000.0001)          No. starts:          20
(PID.TID 0000.0001)           No. stops:          20
(PID.TID 0000.0001)   Seconds in section "BLOCKING_EXCHANGES  [FORWARD_STEP]":
(PID.TID 0000.0001)           User time:  0.27000000000000313
(PID.TID 0000.0001)         System time:   0.0000000000000000
(PID.TID 0000.0001)     Wall clock time:  0.27910614013671875
(PID.TID 0000.0001)          No. starts:          20
(PID.TID 0000.0001)           No. stops:          20
(PID.TID 0000.0001)   Seconds in section "DO_STATEVARS_TAVE   [FORWARD_STEP]":
(PID.TID 0000.0001)           User time:   0.0000000000000000
(PID.TID 0000.0001)         System time:   0.0000000000000000
(PID.TID 0000.0001)     Wall clock time:  2.04086303710937500E-004
(PID.TID 0000.0001)          No. starts:          20
(PID.TID 0000.0001)           No. stops:          20
(PID.TID 0000.0001)   Seconds in section "MONITOR             [FORWARD_STEP]":
(PID.TID 0000.0001)           User time:   4.7999999999999901
(PID.TID 0000.0001)         System time:   0.0000000000000000
(PID.TID 0000.0001)     Wall clock time:   4.8017621040344238
(PID.TID 0000.0001)          No. starts:          20
(PID.TID 0000.0001)           No. stops:          20
(PID.TID 0000.0001)   Seconds in section "DO_THE_MODEL_IO     [FORWARD_STEP]":
(PID.TID 0000.0001)           User time:  8.99999999999963052E-002
(PID.TID 0000.0001)         System time:  1.99999999999999900E-002
(PID.TID 0000.0001)     Wall clock time:   1.3303365707397461
(PID.TID 0000.0001)          No. starts:          20
(PID.TID 0000.0001)           No. stops:          20
(PID.TID 0000.0001)   Seconds in section "DO_WRITE_PICKUP     [FORWARD_STEP]":
(PID.TID 0000.0001)           User time:  0.12000000000000455
(PID.TID 0000.0001)         System time:   0.0000000000000000
(PID.TID 0000.0001)     Wall clock time:  0.13706588745117188
(PID.TID 0000.0001)          No. starts:          20
(PID.TID 0000.0001)           No. stops:          20
(PID.TID 0000.0001) // ======================================================
(PID.TID 0000.0001) // Tile <-> Tile communication statistics
(PID.TID 0000.0001) // ======================================================
(PID.TID 0000.0001) // o Tile number: 000001
(PID.TID 0000.0001) //         No. X exchanges =              0
(PID.TID 0000.0001) //            Max. X spins =              0
(PID.TID 0000.0001) //            Min. X spins =     1000000000
(PID.TID 0000.0001) //          Total. X spins =              0
(PID.TID 0000.0001) //            Avg. X spins =       0.00E+00
(PID.TID 0000.0001) //         No. Y exchanges =              0
(PID.TID 0000.0001) //            Max. Y spins =              0
(PID.TID 0000.0001) //            Min. Y spins =     1000000000
(PID.TID 0000.0001) //          Total. Y spins =              0
(PID.TID 0000.0001) //            Avg. Y spins =       0.00E+00
(PID.TID 0000.0001) // o Tile number: 000002
(PID.TID 0000.0001) //         No. X exchanges =              0
(PID.TID 0000.0001) //            Max. X spins =              0
(PID.TID 0000.0001) //            Min. X spins =     1000000000
(PID.TID 0000.0001) //          Total. X spins =              0
(PID.TID 0000.0001) //            Avg. X spins =       0.00E+00
(PID.TID 0000.0001) //         No. Y exchanges =              0
(PID.TID 0000.0001) //            Max. Y spins =              0
(PID.TID 0000.0001) //            Min. Y spins =     1000000000
(PID.TID 0000.0001) //          Total. Y spins =              0
(PID.TID 0000.0001) //            Avg. Y spins =       0.00E+00
(PID.TID 0000.0001) // o Thread number: 000001
(PID.TID 0000.0001) //            No. barriers =          28854
(PID.TID 0000.0001) //      Max. barrier spins =              1
(PID.TID 0000.0001) //      Min. barrier spins =              1
(PID.TID 0000.0001) //     Total barrier spins =          28854
(PID.TID 0000.0001) //      Avg. barrier spins =       1.00E+00
PROGRAM MAIN: Execution ended Normally
