(PID.TID 0000.0001) 
(PID.TID 0000.0001) // ======================================================
(PID.TID 0000.0001) //                      MITgcm UV
(PID.TID 0000.0001) //                      =========
(PID.TID 0000.0001) // ======================================================
(PID.TID 0000.0001) // execution environment starting up...
(PID.TID 0000.0001) 
(PID.TID 0000.0001) // MITgcmUV version:  checkpoint63m
(PID.TID 0000.0001) // Build user:        jmc
(PID.TID 0000.0001) // Build host:        baudelaire
(PID.TID 0000.0001) // Build date:        Thu May 31 23:40:33 EDT 2012
(PID.TID 0000.0001) 
(PID.TID 0000.0001) // =======================================================
(PID.TID 0000.0001) // Execution Environment parameter file "eedata"
(PID.TID 0000.0001) // =======================================================
(PID.TID 0000.0001) ># Example "eedata" file
(PID.TID 0000.0001) ># Lines beginning "#" are comments
(PID.TID 0000.0001) ># nTx - No. threads per process in X
(PID.TID 0000.0001) ># nTy - No. threads per process in Y
(PID.TID 0000.0001) > &EEPARMS
(PID.TID 0000.0001) > /
(PID.TID 0000.0001) ># Note: Some systems use & as the
(PID.TID 0000.0001) ># namelist terminator. Other systems
(PID.TID 0000.0001) ># use a / character (as shown here).
(PID.TID 0000.0001) 
(PID.TID 0000.0001) // =======================================================
(PID.TID 0000.0001) // Computational Grid Specification ( see files "SIZE.h" )
(PID.TID 0000.0001) //                                  ( and "eedata"       )
(PID.TID 0000.0001) // =======================================================
(PID.TID 0000.0001)      nPx =    1 ; /* No. processes in X */
(PID.TID 0000.0001)      nPy =    1 ; /* No. processes in Y */
(PID.TID 0000.0001)      nSx =    1 ; /* No. tiles in X per process */
(PID.TID 0000.0001)      nSy =    1 ; /* No. tiles in Y per process */
(PID.TID 0000.0001)      sNx =   50 ; /* Tile size in X */
(PID.TID 0000.0001)      sNy =  100 ; /* Tile size in Y */
(PID.TID 0000.0001)      OLx =    3 ; /* Tile overlap distance in X */
(PID.TID 0000.0001)      OLy =    3 ; /* Tile overlap distance in Y */
(PID.TID 0000.0001)      nTx =    1 ; /* No. threads in X per process */
(PID.TID 0000.0001)      nTy =    1 ; /* No. threads in Y per process */
(PID.TID 0000.0001)       Nr =   30 ; /* No. levels in the vertical   */
(PID.TID 0000.0001)       Nx =   50 ; /* Total domain size in X ( = nPx*nSx*sNx ) */
(PID.TID 0000.0001)       Ny =  100 ; /* Total domain size in Y ( = nPy*nSy*sNy ) */
(PID.TID 0000.0001)   nTiles =    1 ; /* Total no. tiles per process ( = nSx*nSy ) */
(PID.TID 0000.0001)   nProcs =    1 ; /* Total no. processes ( = nPx*nPy ) */
(PID.TID 0000.0001) nThreads =    1 ; /* Total no. threads per process ( = nTx*nTy ) */
(PID.TID 0000.0001) usingMPI =    F ; /* Flag used to control whether MPI is in use */
(PID.TID 0000.0001)                   /*  note: To execute a program with MPI calls */
(PID.TID 0000.0001)                   /*  it must be launched appropriately e.g     */
(PID.TID 0000.0001)                   /*  "mpirun -np 64 ......"                    */
(PID.TID 0000.0001) useCoupler=    F ;/* Flag used to control communications with   */
(PID.TID 0000.0001)                   /*  other model components, through a coupler */
(PID.TID 0000.0001) debugMode =    F ; /* print debug msg. (sequence of S/R calls)  */
(PID.TID 0000.0001) printMapIncludesZeros=    F ; /* print zeros in Std.Output maps */
(PID.TID 0000.0001) maxLengthPrt1D=   65 /* maxLength of 1D array printed to StdOut */
(PID.TID 0000.0001) 
(PID.TID 0000.0001) // ======================================================
(PID.TID 0000.0001) // Mapping of tiles to threads
(PID.TID 0000.0001) // ======================================================
(PID.TID 0000.0001) // -o- Thread   1, tiles (   1:   1,   1:   1)
(PID.TID 0000.0001) 
(PID.TID 0000.0001) // ======================================================
(PID.TID 0000.0001) // Tile <-> Tile connectvity table
(PID.TID 0000.0001) // ======================================================
(PID.TID 0000.0001) // Tile number: 000001 (process no. = 000001)
(PID.TID 0000.0001) //        WEST: Tile = 000001, Process = 000001, Comm = put
(PID.TID 0000.0001) //                bi = 000001, bj = 000001
(PID.TID 0000.0001) //        EAST: Tile = 000001, Process = 000001, Comm = put
(PID.TID 0000.0001) //                bi = 000001, bj = 000001
(PID.TID 0000.0001) //       SOUTH: Tile = 000001, Process = 000001, Comm = put
(PID.TID 0000.0001) //                bi = 000001, bj = 000001
(PID.TID 0000.0001) //       NORTH: Tile = 000001, Process = 000001, Comm = put
(PID.TID 0000.0001) //                bi = 000001, bj = 000001
(PID.TID 0000.0001) 
(PID.TID 0000.0001)  INI_PARMS: opening model parameter file "data"
(PID.TID 0000.0001)  OPEN_COPY_DATA_FILE: opening file data
(PID.TID 0000.0001) // =======================================================
(PID.TID 0000.0001) // Parameter file "data"
(PID.TID 0000.0001) // =======================================================
(PID.TID 0000.0001) ># ====================
(PID.TID 0000.0001) ># | Model parameters |
(PID.TID 0000.0001) ># ====================
(PID.TID 0000.0001) >#
(PID.TID 0000.0001) ># Continuous equation parameters
(PID.TID 0000.0001) > &PARM01
(PID.TID 0000.0001) > Tref = 30*-1.9,
(PID.TID 0000.0001) > Sref = 30*34.4,
(PID.TID 0000.0001) > viscAz=1.E-3,
(PID.TID 0000.0001) > viscAh=600.0,
(PID.TID 0000.0001) > no_slip_sides=.FALSE.,
(PID.TID 0000.0001) > no_slip_bottom=.FALSE.,
(PID.TID 0000.0001) > diffKhT=100.0,
(PID.TID 0000.0001) > diffKzT=5.E-5,
(PID.TID 0000.0001) > diffKhS=100.0,
(PID.TID 0000.0001) > diffKzS=5.E-5,
(PID.TID 0000.0001) > bottomDragQuadratic=2.5E-3,
(PID.TID 0000.0001) > eosType='JMD95Z',
(PID.TID 0000.0001) > HeatCapacity_cp = 3974.0,
(PID.TID 0000.0001) > rhoConst=1030.,
(PID.TID 0000.0001) > gravity=9.81,
(PID.TID 0000.0001) > convertFW2Salt = 33.4,
(PID.TID 0000.0001) > implicitFreeSurface=.TRUE.,
(PID.TID 0000.0001) > exactConserv=.TRUE.,
(PID.TID 0000.0001) > hFacMin=0.10,
(PID.TID 0000.0001) > nonHydrostatic=.FALSE.,
(PID.TID 0000.0001) > readBinaryPrec=64,
(PID.TID 0000.0001) > useCDScheme = .TRUE.,
(PID.TID 0000.0001) >#ph(
(PID.TID 0000.0001) > implicitDiffusion=.TRUE.,
(PID.TID 0000.0001) ># ivdc_kappa = 7200.,
(PID.TID 0000.0001) > staggerTimeStep=.TRUE.,
(PID.TID 0000.0001) > vectorInvariantMomentum=.TRUE.,
(PID.TID 0000.0001) > nonlinFreeSurf=2,
(PID.TID 0000.0001) > hFacInf=0.05,
(PID.TID 0000.0001) > hFacSup=2.0,
(PID.TID 0000.0001) >#ph)
(PID.TID 0000.0001) > /
(PID.TID 0000.0001) >
(PID.TID 0000.0001) ># Elliptic solver parameters
(PID.TID 0000.0001) > &PARM02
(PID.TID 0000.0001) > cg2dMaxIters=1000,
(PID.TID 0000.0001) > cg2dTargetResidual=1.E-13,
(PID.TID 0000.0001) > /
(PID.TID 0000.0001) >
(PID.TID 0000.0001) ># Time stepping parameters
(PID.TID 0000.0001) > &PARM03
(PID.TID 0000.0001) > nIter0=8640,
(PID.TID 0000.0001) > nTimeSteps=10,
(PID.TID 0000.0001) > deltaT=1800.0,
(PID.TID 0000.0001) > abEps=0.1,
(PID.TID 0000.0001) > cAdjFreq = 1.,
(PID.TID 0000.0001) > tauCD = 400000.,
(PID.TID 0000.0001) > pChkptFreq=0.0,
(PID.TID 0000.0001) > chkptFreq=0.0,
(PID.TID 0000.0001) > dumpFreq=0.0,
(PID.TID 0000.0001) > taveFreq=0.0,
(PID.TID 0000.0001) > monitorFreq=1.,
(PID.TID 0000.0001) > monitorSelect=2,
(PID.TID 0000.0001) > adjMonitorFreq=1800.,
(PID.TID 0000.0001) > /
(PID.TID 0000.0001) >
(PID.TID 0000.0001) ># Gridding parameters
(PID.TID 0000.0001) > &PARM04
(PID.TID 0000.0001) > usingSphericalPolarGrid=.TRUE.,
(PID.TID 0000.0001) > ygOrigin = -80.0,
(PID.TID 0000.0001) > delX=50*0.3,
(PID.TID 0000.0001) > delY=100*0.1,
(PID.TID 0000.0001) > delZ=30*30.0,
(PID.TID 0000.0001) > /
(PID.TID 0000.0001) >
(PID.TID 0000.0001) ># Input datasets
(PID.TID 0000.0001) > &PARM05
(PID.TID 0000.0001) > bathyFile='bathy.box',
(PID.TID 0000.0001) > /
(PID.TID 0000.0001) 
(PID.TID 0000.0001)  INI_PARMS ; starts to read PARM01
(PID.TID 0000.0001)  INI_PARMS ; read PARM01 : OK
(PID.TID 0000.0001)  INI_PARMS ; starts to read PARM02
(PID.TID 0000.0001)  INI_PARMS ; read PARM02 : OK
(PID.TID 0000.0001)  INI_PARMS ; starts to read PARM03
(PID.TID 0000.0001)  INI_PARMS ; read PARM03 : OK
(PID.TID 0000.0001)  INI_PARMS ; starts to read PARM04
(PID.TID 0000.0001)  INI_PARMS ; read PARM04 : OK
(PID.TID 0000.0001)  INI_PARMS ; starts to read PARM05
(PID.TID 0000.0001)  INI_PARMS ; read PARM05 : OK
(PID.TID 0000.0001)  INI_PARMS: finished reading file "data"
(PID.TID 0000.0001)  PACKAGES_BOOT: opening data.pkg
(PID.TID 0000.0001)  OPEN_COPY_DATA_FILE: opening file data.pkg
(PID.TID 0000.0001) // =======================================================
(PID.TID 0000.0001) // Parameter file "data.pkg"
(PID.TID 0000.0001) // =======================================================
(PID.TID 0000.0001) ># Packages
(PID.TID 0000.0001) > &PACKAGES
(PID.TID 0000.0001) > useMNC=.TRUE.,
(PID.TID 0000.0001) > useShelfIce=.TRUE.,
(PID.TID 0000.0001) > useGrdchk=.TRUE.,
(PID.TID 0000.0001) > /
(PID.TID 0000.0001) 
(PID.TID 0000.0001)  PACKAGES_BOOT: finished reading data.pkg
(PID.TID 0000.0001)  MNC_READPARMS: opening file 'data.mnc'
(PID.TID 0000.0001)  OPEN_COPY_DATA_FILE: opening file data.mnc
(PID.TID 0000.0001) // =======================================================
(PID.TID 0000.0001) // Parameter file "data.mnc"
(PID.TID 0000.0001) // =======================================================
(PID.TID 0000.0001) ># Example "data.mnc" file
(PID.TID 0000.0001) ># Lines beginning "#" are comments
(PID.TID 0000.0001) > &MNC_01
(PID.TID 0000.0001) ># mnc_echo_gvtypes=.FALSE.,
(PID.TID 0000.0001) ># mnc_use_indir=.FALSE.,
(PID.TID 0000.0001) > mnc_use_outdir=.TRUE.,
(PID.TID 0000.0001) > mnc_outdir_str='mnc_test_',
(PID.TID 0000.0001) >#mnc_outdir_date=.TRUE.,
(PID.TID 0000.0001) > monitor_mnc=.FALSE.,
(PID.TID 0000.0001) >#snapshot_mnc=.FALSE.,
(PID.TID 0000.0001) >#timeave_mnc=.FALSE.,
(PID.TID 0000.0001) > pickup_read_mnc=.FALSE.,
(PID.TID 0000.0001) > pickup_write_mnc=.FALSE.,
(PID.TID 0000.0001) > /
(PID.TID 0000.0001) ># Note: Some systems use & as the
(PID.TID 0000.0001) ># namelist terminator. Other systems
(PID.TID 0000.0001) ># use a / character (as shown here).
(PID.TID 0000.0001) 
(PID.TID 0000.0001)  MNC_READPARMS: finished reading data.mnc
(PID.TID 0000.0001)  SHELFICE_READPARMS: opening data.shelfice
(PID.TID 0000.0001)  OPEN_COPY_DATA_FILE: opening file data.shelfice
(PID.TID 0000.0001) // =======================================================
(PID.TID 0000.0001) // Parameter file "data.shelfice"
(PID.TID 0000.0001) // =======================================================
(PID.TID 0000.0001) ># ===================================
(PID.TID 0000.0001) ># | Parameters for SHELFICE package |
(PID.TID 0000.0001) ># ===================================
(PID.TID 0000.0001) > &SHELFICE_PARM01
(PID.TID 0000.0001) > SHELFICEboundaryLayer = .TRUE.,
(PID.TID 0000.0001) > SHELFICEtopoFile='icetopo.exp1',
(PID.TID 0000.0001) > SHELFICEloadAnomalyFile = 'phi0surf.exp1.jmd95z',
(PID.TID 0000.0001) > useISOMIPTD = .TRUE.,
(PID.TID 0000.0001) > no_slip_shelfice = .false.,
(PID.TID 0000.0001) > SHELFICEwriteState = .TRUE.,
(PID.TID 0000.0001) > /
(PID.TID 0000.0001) 
(PID.TID 0000.0001)  SHELFICE_READPARMS: finished reading data.shelfice
(PID.TID 0000.0001) OPTIM_READPARMS: opening data.optim
(PID.TID 0000.0001)  OPEN_COPY_DATA_FILE: opening file data.optim
(PID.TID 0000.0001) // =======================================================
(PID.TID 0000.0001) // Parameter file "data.optim"
(PID.TID 0000.0001) // =======================================================
(PID.TID 0000.0001) > &OPTIM
(PID.TID 0000.0001) > optimcycle=0,
(PID.TID 0000.0001) > /
(PID.TID 0000.0001) 
(PID.TID 0000.0001) OPTIM_READPARMS: finished reading data.optim
(PID.TID 0000.0001) CTRL_READPARMS: opening data.ctrl
(PID.TID 0000.0001)  OPEN_COPY_DATA_FILE: opening file data.ctrl
(PID.TID 0000.0001) // =======================================================
(PID.TID 0000.0001) // Parameter file "data.ctrl"
(PID.TID 0000.0001) // =======================================================
(PID.TID 0000.0001) >#
(PID.TID 0000.0001) >#
(PID.TID 0000.0001) ># *********************
(PID.TID 0000.0001) ># ECCO controlvariables
(PID.TID 0000.0001) ># *********************
(PID.TID 0000.0001) > &CTRL_NML
(PID.TID 0000.0001) > xx_theta_file      ='xx_theta',
(PID.TID 0000.0001) > xx_salt_file       ='xx_salt',
(PID.TID 0000.0001) >#
(PID.TID 0000.0001) > xx_hfluxstartdate1 = 19790101,
(PID.TID 0000.0001) > xx_hfluxstartdate2 = 000000,
(PID.TID 0000.0001) > xx_hfluxperiod     = 864000.0,
(PID.TID 0000.0001) > xx_hflux_file      = 'xx_hfl',
(PID.TID 0000.0001) >#
(PID.TID 0000.0001) > xx_sfluxstartdate1 = 19790101,
(PID.TID 0000.0001) > xx_sfluxstartdate2 = 000000,
(PID.TID 0000.0001) > xx_sfluxperiod     = 864000.0,
(PID.TID 0000.0001) > xx_sflux_file      = 'xx_sfl',
(PID.TID 0000.0001) >#
(PID.TID 0000.0001) > xx_tauustartdate1 = 19790101,
(PID.TID 0000.0001) > xx_tauustartdate2 = 000000,
(PID.TID 0000.0001) > xx_tauuperiod     = 864000.0,
(PID.TID 0000.0001) > xx_tauu_file      = 'xx_tauu',
(PID.TID 0000.0001) >#
(PID.TID 0000.0001) > xx_tauvstartdate1 = 19790101,
(PID.TID 0000.0001) > xx_tauvstartdate2 = 000000,
(PID.TID 0000.0001) > xx_tauvperiod     = 864000.0,
(PID.TID 0000.0001) > xx_tauv_file      = 'xx_tauv',
(PID.TID 0000.0001) >#
(PID.TID 0000.0001) > xx_atempstartdate1 = 19790101,
(PID.TID 0000.0001) > xx_atempstartdate2 = 000000,
(PID.TID 0000.0001) > xx_atempperiod     = 864000.0,
(PID.TID 0000.0001) > xx_atemp_file      = 'xx_atemp',
(PID.TID 0000.0001) >#
(PID.TID 0000.0001) > xx_aqhstartdate1 = 19790101,
(PID.TID 0000.0001) > xx_aqhstartdate2 = 000000,
(PID.TID 0000.0001) > xx_aqhperiod     = 864000.0,
(PID.TID 0000.0001) > xx_aqh_file      = 'xx_aqh',
(PID.TID 0000.0001) >#
(PID.TID 0000.0001) > xx_precipstartdate1 = 19790101,
(PID.TID 0000.0001) > xx_precipstartdate2 = 000000,
(PID.TID 0000.0001) > xx_precipperiod     = 864000.0,
(PID.TID 0000.0001) > xx_precip_file      = 'xx_precip',
(PID.TID 0000.0001) >#
(PID.TID 0000.0001) > xx_swdownstartdate1 = 19790101,
(PID.TID 0000.0001) > xx_swdownstartdate2 = 000000,
(PID.TID 0000.0001) > xx_swdownperiod     = 864000.0,
(PID.TID 0000.0001) > xx_swdown_file      = 'xx_swdown',
(PID.TID 0000.0001) >#
(PID.TID 0000.0001) > xx_uwindstartdate1 = 19790101,
(PID.TID 0000.0001) > xx_uwindstartdate2 = 000000,
(PID.TID 0000.0001) > xx_uwindperiod     = 864000.0,
(PID.TID 0000.0001) > xx_uwind_file      = 'xx_uwind',
(PID.TID 0000.0001) >#
(PID.TID 0000.0001) > xx_vwindstartdate1 = 19790101,
(PID.TID 0000.0001) > xx_vwindstartdate2 = 000000,
(PID.TID 0000.0001) > xx_vwindperiod     = 864000.0,
(PID.TID 0000.0001) > xx_vwind_file      = 'xx_vwind',
(PID.TID 0000.0001) >#
(PID.TID 0000.0001) > xx_sststartdate1 = 19790101,
(PID.TID 0000.0001) > xx_sststartdate2 = 000000,
(PID.TID 0000.0001) > xx_sstperiod     = 864000.0,
(PID.TID 0000.0001) > xx_sst_file      = 'xx_sst',
(PID.TID 0000.0001) >#
(PID.TID 0000.0001) > xx_sssstartdate1 = 19790101,
(PID.TID 0000.0001) > xx_sssstartdate2 = 000000,
(PID.TID 0000.0001) > xx_sssperiod     = 864000.0,
(PID.TID 0000.0001) > xx_sss_file      = 'xx_sss',
(PID.TID 0000.0001) > /
(PID.TID 0000.0001) >#
(PID.TID 0000.0001) ># *********************
(PID.TID 0000.0001) ># names for ctrl_pack/unpack
(PID.TID 0000.0001) ># *********************
(PID.TID 0000.0001) > &CTRL_PACKNAMES
(PID.TID 0000.0001) > /
(PID.TID 0000.0001) 
(PID.TID 0000.0001) CTRL_READPARMS: finished reading data.ctrl
(PID.TID 0000.0001) COST_READPARMS: opening data.cost
(PID.TID 0000.0001)  OPEN_COPY_DATA_FILE: opening file data.cost
(PID.TID 0000.0001) // =======================================================
(PID.TID 0000.0001) // Parameter file "data.cost"
(PID.TID 0000.0001) // =======================================================
(PID.TID 0000.0001) >#
(PID.TID 0000.0001) >#
(PID.TID 0000.0001) ># ******************
(PID.TID 0000.0001) ># cost function
(PID.TID 0000.0001) ># ******************
(PID.TID 0000.0001) > &COST_NML
(PID.TID 0000.0001) >#revert to default 1 month
(PID.TID 0000.0001) ># lastinterval=7776000.,
(PID.TID 0000.0001) > mult_test=1.,
(PID.TID 0000.0001) > /
(PID.TID 0000.0001) 
(PID.TID 0000.0001) COST_READPARMS: finished reading data.cost
(PID.TID 0000.0001) GRDCHK_READPARMS: opening data.grdchk
(PID.TID 0000.0001)  OPEN_COPY_DATA_FILE: opening file data.grdchk
(PID.TID 0000.0001) // =======================================================
(PID.TID 0000.0001) // Parameter file "data.grdchk"
(PID.TID 0000.0001) // =======================================================
(PID.TID 0000.0001) ># *******************
(PID.TID 0000.0001) ># ECCO gradient check
(PID.TID 0000.0001) ># *******************
(PID.TID 0000.0001) > &GRDCHK_NML
(PID.TID 0000.0001) > grdchk_eps       = 1.d-2,
(PID.TID 0000.0001) >  iglopos         = 20,
(PID.TID 0000.0001) >  jglopos         = 24,
(PID.TID 0000.0001) >  kglopos         = 20,
(PID.TID 0000.0001) ># nbeg             = 1,
(PID.TID 0000.0001) > nstep            = 1,
(PID.TID 0000.0001) > nend             = 4,
(PID.TID 0000.0001) > grdchkvarindex   = 1,
(PID.TID 0000.0001) > /
(PID.TID 0000.0001) 
(PID.TID 0000.0001) GRDCHK_READPARMS: finished reading data.grdchk
(PID.TID 0000.0001) 
(PID.TID 0000.0001) // =======================================================
(PID.TID 0000.0001) // Gradient check configuration  >>> START <<<
(PID.TID 0000.0001) // =======================================================
(PID.TID 0000.0001) 
(PID.TID 0000.0001)   eps:                              0.100E-01
(PID.TID 0000.0001)   First location:                           0
(PID.TID 0000.0001)   Last location:                            4
(PID.TID 0000.0001)   Increment:                                1
(PID.TID 0000.0001)   grdchkWhichProc:                          0
(PID.TID 0000.0001)   iLocTile =       1  ,    jLocTile =       1
(PID.TID 0000.0001) 
(PID.TID 0000.0001) // =======================================================
(PID.TID 0000.0001) // Gradient check configuration  >>> END <<<
(PID.TID 0000.0001) // =======================================================
(PID.TID 0000.0001) 
(PID.TID 0000.0001) SET_PARMS: done
(PID.TID 0000.0001) Enter INI_VERTICAL_GRID: setInterFDr=    T ; setCenterDr=    F
(PID.TID 0000.0001) %MON XC_max                       =   1.4850000000000E+01
(PID.TID 0000.0001) %MON XC_min                       =   1.5000000000000E-01
(PID.TID 0000.0001) %MON XC_mean                      =   7.5000000000000E+00
(PID.TID 0000.0001) %MON XC_sd                        =   4.3292609068985E+00
(PID.TID 0000.0001) %MON XG_max                       =   1.4700000000000E+01
(PID.TID 0000.0001) %MON XG_min                       =   1.1102230246252E-16
(PID.TID 0000.0001) %MON XG_mean                      =   7.3500000000000E+00
(PID.TID 0000.0001) %MON XG_sd                        =   4.3292609068985E+00
(PID.TID 0000.0001) %MON DXC_max                      =   1.1380125394806E+04
(PID.TID 0000.0001) %MON DXC_min                      =   5.8203914905589E+03
(PID.TID 0000.0001) %MON DXC_mean                     =   8.6215028627210E+03
(PID.TID 0000.0001) %MON DXC_sd                       =   1.6219001271572E+03
(PID.TID 0000.0001) %MON DXF_max                      =   1.1380125394806E+04
(PID.TID 0000.0001) %MON DXF_min                      =   5.8203914905589E+03
(PID.TID 0000.0001) %MON DXF_mean                     =   8.6215028627210E+03
(PID.TID 0000.0001) %MON DXF_sd                       =   1.6219001271572E+03
(PID.TID 0000.0001) %MON DXG_max                      =   1.1352761512017E+04
(PID.TID 0000.0001) %MON DXG_min                      =   5.7917296935586E+03
(PID.TID 0000.0001) %MON DXG_mean                     =   8.5934208253080E+03
(PID.TID 0000.0001) %MON DXG_sd                       =   1.6222785520817E+03
(PID.TID 0000.0001) %MON DXV_max                      =   1.1352761512017E+04
(PID.TID 0000.0001) %MON DXV_min                      =   5.7917296935586E+03
(PID.TID 0000.0001) %MON DXV_mean                     =   8.5934208253080E+03
(PID.TID 0000.0001) %MON DXV_sd                       =   1.6222785520817E+03
(PID.TID 0000.0001) %MON YC_max                       =  -7.0050000000001E+01
(PID.TID 0000.0001) %MON YC_min                       =  -7.9950000000000E+01
(PID.TID 0000.0001) %MON YC_mean                      =  -7.5000000000000E+01
(PID.TID 0000.0001) %MON YC_sd                        =   2.8866070047720E+00
(PID.TID 0000.0001) %MON YG_max                       =  -7.0100000000001E+01
(PID.TID 0000.0001) %MON YG_min                       =  -8.0000000000000E+01
(PID.TID 0000.0001) %MON YG_mean                      =  -7.5050000000000E+01
(PID.TID 0000.0001) %MON YG_sd                        =   2.8866070047720E+00
(PID.TID 0000.0001) %MON DYC_max                      =   1.1117747335204E+04
(PID.TID 0000.0001) %MON DYC_min                      =   1.1117747335204E+04
(PID.TID 0000.0001) %MON DYC_mean                     =   1.1117747335203E+04
(PID.TID 0000.0001) %MON DYC_sd                       =   7.4760464485735E-10
(PID.TID 0000.0001) %MON DYF_max                      =   1.1117747335204E+04
(PID.TID 0000.0001) %MON DYF_min                      =   1.1117747335204E+04
(PID.TID 0000.0001) %MON DYF_mean                     =   1.1117747335203E+04
(PID.TID 0000.0001) %MON DYF_sd                       =   7.4760464485735E-10
(PID.TID 0000.0001) %MON DYG_max                      =   1.1117747335204E+04
(PID.TID 0000.0001) %MON DYG_min                      =   1.1117747335204E+04
(PID.TID 0000.0001) %MON DYG_mean                     =   1.1117747335203E+04
(PID.TID 0000.0001) %MON DYG_sd                       =   7.4760464485735E-10
(PID.TID 0000.0001) %MON DYU_max                      =   1.1117747335204E+04
(PID.TID 0000.0001) %MON DYU_min                      =   1.1117747335204E+04
(PID.TID 0000.0001) %MON DYU_mean                     =   1.1117747335203E+04
(PID.TID 0000.0001) %MON DYU_sd                       =   7.4760464485735E-10
(PID.TID 0000.0001) %MON RA_max                       =   1.2652134272379E+08
(PID.TID 0000.0001) %MON RA_min                       =   6.4709633770803E+07
(PID.TID 0000.0001) %MON RA_mean                      =   9.5851678311588E+07
(PID.TID 0000.0001) %MON RA_sd                        =   1.8031873527992E+07
(PID.TID 0000.0001) %MON RAW_max                      =   1.2652134272379E+08
(PID.TID 0000.0001) %MON RAW_min                      =   6.4709633770803E+07
(PID.TID 0000.0001) %MON RAW_mean                     =   9.5851678311588E+07
(PID.TID 0000.0001) %MON RAW_sd                       =   1.8031873527992E+07
(PID.TID 0000.0001) %MON RAS_max                      =   1.2621711802744E+08
(PID.TID 0000.0001) %MON RAS_min                      =   6.4390979194019E+07
(PID.TID 0000.0001) %MON RAS_mean                     =   9.5539469354601E+07
(PID.TID 0000.0001) %MON RAS_sd                       =   1.8036080760153E+07
(PID.TID 0000.0001) %MON RAZ_max                      =   1.2621711802744E+08
(PID.TID 0000.0001) %MON RAZ_min                      =   6.4390979194019E+07
(PID.TID 0000.0001) %MON RAZ_mean                     =   9.5539469354601E+07
(PID.TID 0000.0001) %MON RAZ_sd                       =   1.8036080760153E+07
(PID.TID 0000.0001) %MON AngleCS_max                  =   1.0000000000000E+00
(PID.TID 0000.0001) %MON AngleCS_min                  =   1.0000000000000E+00
(PID.TID 0000.0001) %MON AngleCS_mean                 =   1.0000000000000E+00
(PID.TID 0000.0001) %MON AngleCS_sd                   =   0.0000000000000E+00
(PID.TID 0000.0001) %MON AngleSN_max                  =   0.0000000000000E+00
(PID.TID 0000.0001) %MON AngleSN_min                  =   0.0000000000000E+00
(PID.TID 0000.0001) %MON AngleSN_mean                 =   0.0000000000000E+00
(PID.TID 0000.0001) %MON AngleSN_sd                   =   0.0000000000000E+00
(PID.TID 0000.0001) GAD_INIT_FIXED: GAD_OlMinSize=  1  0  1
(PID.TID 0000.0001) 
(PID.TID 0000.0001) // ===================================
(PID.TID 0000.0001) // GAD parameters :
(PID.TID 0000.0001) // ===================================
(PID.TID 0000.0001) tempAdvScheme =   /* Temp. Horiz.Advection scheme selector */
(PID.TID 0000.0001)                       2
(PID.TID 0000.0001)     ;
(PID.TID 0000.0001) tempVertAdvScheme =   /* Temp. Vert. Advection scheme selector */
(PID.TID 0000.0001)                       2
(PID.TID 0000.0001)     ;
(PID.TID 0000.0001) tempMultiDimAdvec =   /* use Muti-Dim Advec method for Temp */
(PID.TID 0000.0001)                   F
(PID.TID 0000.0001)     ;
(PID.TID 0000.0001) tempSOM_Advection = /* use 2nd Order Moment Advection for Temp */
(PID.TID 0000.0001)                   F
(PID.TID 0000.0001)     ;
(PID.TID 0000.0001) AdamsBashforthGt = /* apply Adams-Bashforth extrapolation on Gt */
(PID.TID 0000.0001)                   T
(PID.TID 0000.0001)     ;
(PID.TID 0000.0001) AdamsBashforth_T = /* apply Adams-Bashforth extrapolation on Temp */
(PID.TID 0000.0001)                   F
(PID.TID 0000.0001)     ;
(PID.TID 0000.0001) saltAdvScheme =   /* Salt. Horiz.advection scheme selector */
(PID.TID 0000.0001)                       2
(PID.TID 0000.0001)     ;
(PID.TID 0000.0001) saltVertAdvScheme =   /* Salt. Vert. Advection scheme selector */
(PID.TID 0000.0001)                       2
(PID.TID 0000.0001)     ;
(PID.TID 0000.0001) saltMultiDimAdvec =   /* use Muti-Dim Advec method for Salt */
(PID.TID 0000.0001)                   F
(PID.TID 0000.0001)     ;
(PID.TID 0000.0001) saltSOM_Advection = /* use 2nd Order Moment Advection for Salt */
(PID.TID 0000.0001)                   F
(PID.TID 0000.0001)     ;
(PID.TID 0000.0001) AdamsBashforthGs = /* apply Adams-Bashforth extrapolation on Gs */
(PID.TID 0000.0001)                   T
(PID.TID 0000.0001)     ;
(PID.TID 0000.0001) AdamsBashforth_S = /* apply Adams-Bashforth extrapolation on Salt */
(PID.TID 0000.0001)                   F
(PID.TID 0000.0001)     ;
(PID.TID 0000.0001) // ===================================
(PID.TID 0000.0001) ctrl-wet 1:    nvarlength =       306201
(PID.TID 0000.0001) ctrl-wet 2: surface wet C =            0
(PID.TID 0000.0001) ctrl-wet 3: surface wet W =            0
(PID.TID 0000.0001) ctrl-wet 4: surface wet S =            0
(PID.TID 0000.0001) ctrl-wet 4a:surface wet V =            0
(PID.TID 0000.0001) ctrl-wet 5: 3D wet points =       100450
(PID.TID 0000.0001) ctrl-wet 6: no recs for i =     1           1
(PID.TID 0000.0001) ctrl-wet 6: no recs for i =     2           1
(PID.TID 0000.0001) ctrl-wet 6: no recs for i =     3           0
(PID.TID 0000.0001) ctrl-wet 6: no recs for i =     4           0
(PID.TID 0000.0001) ctrl-wet 6: no recs for i =     5           0
(PID.TID 0000.0001) ctrl-wet 6: no recs for i =     6           0
(PID.TID 0000.0001) ctrl-wet 6: no recs for i =     7           0
(PID.TID 0000.0001) ctrl-wet 6: no recs for i =     8           0
(PID.TID 0000.0001) ctrl-wet 6: no recs for i =     9           0
(PID.TID 0000.0001) ctrl-wet 6: no recs for i =    10           0
(PID.TID 0000.0001) ctrl-wet 6: no recs for i =    11           0
(PID.TID 0000.0001) ctrl-wet 6: no recs for i =    12           0
(PID.TID 0000.0001) ctrl-wet 6: no recs for i =    13           0
(PID.TID 0000.0001) ctrl-wet 6: no recs for i =    14           0
(PID.TID 0000.0001) ctrl-wet 6: no recs for i =    15           1
(PID.TID 0000.0001) ctrl-wet 6: no recs for i =    16           0
(PID.TID 0000.0001) ctrl-wet 6: no recs for i =    17           0
(PID.TID 0000.0001) ctrl-wet 6: no recs for i =    18           0
(PID.TID 0000.0001) ctrl-wet 6: no recs for i =    19           0
(PID.TID 0000.0001) ctrl-wet 6: no recs for i =    20           0
(PID.TID 0000.0001) ctrl-wet 6: no recs for i =    21           0
(PID.TID 0000.0001) ctrl-wet 6: no recs for i =    22           0
(PID.TID 0000.0001) ctrl-wet 6: no recs for i =    23           0
(PID.TID 0000.0001) ctrl-wet 6: no recs for i =    24           0
(PID.TID 0000.0001) ctrl-wet 6: no recs for i =    25           0
(PID.TID 0000.0001) ctrl-wet 6: no recs for i =    26           0
(PID.TID 0000.0001) ctrl-wet 6: no recs for i =    27           0
(PID.TID 0000.0001) ctrl-wet 6: no recs for i =    28           0
(PID.TID 0000.0001) ctrl-wet 6: no recs for i =    29           0
(PID.TID 0000.0001) ctrl-wet 6: no recs for i =    30           0
(PID.TID 0000.0001) ctrl-wet 6: no recs for i =    31           0
(PID.TID 0000.0001) ctrl-wet 6: no recs for i =    32           0
(PID.TID 0000.0001) ctrl-wet 6: no recs for i =    33           0
(PID.TID 0000.0001) ctrl-wet 6: no recs for i =    34           0
(PID.TID 0000.0001) ctrl-wet 6: no recs for i =    35           0
(PID.TID 0000.0001) ctrl-wet 6: no recs for i =    36           0
(PID.TID 0000.0001) ctrl-wet 6: no recs for i =    37           0
(PID.TID 0000.0001) ctrl-wet 6: no recs for i =    38           0
(PID.TID 0000.0001) ctrl-wet 6: no recs for i =    39           0
(PID.TID 0000.0001) ctrl-wet 6: no recs for i =    40           0
(PID.TID 0000.0001) ctrl-wet 6: no recs for i =    41           0
(PID.TID 0000.0001) ctrl-wet 6: no recs for i =    42           0
(PID.TID 0000.0001) ctrl-wet 6: no recs for i =    43           0
(PID.TID 0000.0001) ctrl-wet 6: no recs for i =    44           0
(PID.TID 0000.0001) ctrl-wet 6: no recs for i =    45           1
(PID.TID 0000.0001) ctrl-wet 6: no recs for i =    46           0
(PID.TID 0000.0001) ctrl-wet 6: no recs for i =    47           0
(PID.TID 0000.0001) ctrl-wet 6: no recs for i =    48           0
(PID.TID 0000.0001) ctrl-wet 6: no recs for i =    49           0
(PID.TID 0000.0001) ctrl-wet 6: no recs for i =    50           0
(PID.TID 0000.0001) ctrl-wet 6: no recs for i =    51           0
(PID.TID 0000.0001) ctrl-wet 6: no recs for i =    52           0
(PID.TID 0000.0001) ctrl-wet 6: no recs for i =    53           0
(PID.TID 0000.0001) ctrl-wet 6: no recs for i =    54           0
(PID.TID 0000.0001) ctrl-wet 6: no recs for i =    55           0
(PID.TID 0000.0001) ctrl-wet 6: no recs for i =    56           0
(PID.TID 0000.0001) ctrl-wet 6: no recs for i =    57           0
(PID.TID 0000.0001) ctrl-wet 6: no recs for i =    58           0
(PID.TID 0000.0001) ctrl-wet 6: no recs for i =    59           0
(PID.TID 0000.0001) ctrl-wet 6: no recs for i =    60           0
(PID.TID 0000.0001) ctrl-wet 7: flux        200900
(PID.TID 0000.0001) ctrl-wet 8: atmos       200900
(PID.TID 0000.0001) ctrl-wet -------------------------------------------------
(PID.TID 0000.0001) ctrl-wet 13: global nvarlength for Nr =   30      306201
(PID.TID 0000.0001) ctrl-wet -------------------------------------------------
(PID.TID 0000.0001) ctrl-wet 14: global nWet C/S/W/V k=    1           0           0           0           0
(PID.TID 0000.0001) ctrl-wet 14: global nWet C/S/W/V k=    2           0           0           0           0
(PID.TID 0000.0001) ctrl-wet 14: global nWet C/S/W/V k=    3           0           0           0           0
(PID.TID 0000.0001) ctrl-wet 14: global nWet C/S/W/V k=    4           0           0           0           0
(PID.TID 0000.0001) ctrl-wet 14: global nWet C/S/W/V k=    5           0           0           0           0
(PID.TID 0000.0001) ctrl-wet 14: global nWet C/S/W/V k=    6           0           0           0           0
(PID.TID 0000.0001) ctrl-wet 14: global nWet C/S/W/V k=    7        2989        2940        2928           0
(PID.TID 0000.0001) ctrl-wet 14: global nWet C/S/W/V k=    8        3087        3038        3024           0
(PID.TID 0000.0001) ctrl-wet 14: global nWet C/S/W/V k=    9        3185        3136        3120           0
(PID.TID 0000.0001) ctrl-wet 14: global nWet C/S/W/V k=   10        3332        3283        3264           0
(PID.TID 0000.0001) ctrl-wet 14: global nWet C/S/W/V k=   11        3430        3381        3360           0
(PID.TID 0000.0001) ctrl-wet 14: global nWet C/S/W/V k=   12        3577        3528        3504           0
(PID.TID 0000.0001) ctrl-wet 14: global nWet C/S/W/V k=   13        3675        3626        3600           0
(PID.TID 0000.0001) ctrl-wet 14: global nWet C/S/W/V k=   14        3773        3724        3696           0
(PID.TID 0000.0001) ctrl-wet 14: global nWet C/S/W/V k=   15        3920        3871        3840           0
(PID.TID 0000.0001) ctrl-wet 14: global nWet C/S/W/V k=   16        4018        3969        3936           0
(PID.TID 0000.0001) ctrl-wet 14: global nWet C/S/W/V k=   17        4165        4116        4080           0
(PID.TID 0000.0001) ctrl-wet 14: global nWet C/S/W/V k=   18        4263        4214        4176           0
(PID.TID 0000.0001) ctrl-wet 14: global nWet C/S/W/V k=   19        4361        4312        4272           0
(PID.TID 0000.0001) ctrl-wet 14: global nWet C/S/W/V k=   20        4508        4459        4416           0
(PID.TID 0000.0001) ctrl-wet 14: global nWet C/S/W/V k=   21        4606        4557        4512           0
(PID.TID 0000.0001) ctrl-wet 14: global nWet C/S/W/V k=   22        4753        4704        4656           0
(PID.TID 0000.0001) ctrl-wet 14: global nWet C/S/W/V k=   23        4851        4802        4752           0
(PID.TID 0000.0001) ctrl-wet 14: global nWet C/S/W/V k=   24        4851        4802        4752           0
(PID.TID 0000.0001) ctrl-wet 14: global nWet C/S/W/V k=   25        4851        4802        4752           0
(PID.TID 0000.0001) ctrl-wet 14: global nWet C/S/W/V k=   26        4851        4802        4752           0
(PID.TID 0000.0001) ctrl-wet 14: global nWet C/S/W/V k=   27        4851        4802        4752           0
(PID.TID 0000.0001) ctrl-wet 14: global nWet C/S/W/V k=   28        4851        4802        4752           0
(PID.TID 0000.0001) ctrl-wet 14: global nWet C/S/W/V k=   29        4851        4802        4752           0
(PID.TID 0000.0001) ctrl-wet 14: global nWet C/S/W/V k=   30        4851        4802        4752           0
(PID.TID 0000.0001) ctrl-wet -------------------------------------------------
(PID.TID 0000.0001) ctrl-wet -------------------------------------------------
(PID.TID 0000.0001) ctrl-wet -------------------------------------------------
(PID.TID 0000.0001) ctrl-wet 17a:surface wet I =         4851
(PID.TID 0000.0001) ctrl-wet 17b: global nWet I k=    1        4851
(PID.TID 0000.0001) ctrl-wet 17b: global nWet I k=    2           0
(PID.TID 0000.0001) ctrl-wet 17b: global nWet I k=    3           0
(PID.TID 0000.0001) ctrl-wet 17b: global nWet I k=    4           0
(PID.TID 0000.0001) ctrl-wet 17b: global nWet I k=    5           0
(PID.TID 0000.0001) ctrl-wet 17b: global nWet I k=    6           0
(PID.TID 0000.0001) ctrl-wet 17b: global nWet I k=    7        2989
(PID.TID 0000.0001) ctrl-wet 17b: global nWet I k=    8        3087
(PID.TID 0000.0001) ctrl-wet 17b: global nWet I k=    9        3185
(PID.TID 0000.0001) ctrl-wet 17b: global nWet I k=   10        3332
(PID.TID 0000.0001) ctrl-wet 17b: global nWet I k=   11        3430
(PID.TID 0000.0001) ctrl-wet 17b: global nWet I k=   12        3577
(PID.TID 0000.0001) ctrl-wet 17b: global nWet I k=   13        3675
(PID.TID 0000.0001) ctrl-wet 17b: global nWet I k=   14        3773
(PID.TID 0000.0001) ctrl-wet 17b: global nWet I k=   15        3920
(PID.TID 0000.0001) ctrl-wet 17b: global nWet I k=   16        4018
(PID.TID 0000.0001) ctrl-wet 17b: global nWet I k=   17        4165
(PID.TID 0000.0001) ctrl-wet 17b: global nWet I k=   18        4263
(PID.TID 0000.0001) ctrl-wet 17b: global nWet I k=   19        4361
(PID.TID 0000.0001) ctrl-wet 17b: global nWet I k=   20        4508
(PID.TID 0000.0001) ctrl-wet 17b: global nWet I k=   21        4606
(PID.TID 0000.0001) ctrl-wet 17b: global nWet I k=   22        4753
(PID.TID 0000.0001) ctrl-wet 17b: global nWet I k=   23        4851
(PID.TID 0000.0001) ctrl-wet 17b: global nWet I k=   24        4851
(PID.TID 0000.0001) ctrl-wet 17b: global nWet I k=   25        4851
(PID.TID 0000.0001) ctrl-wet 17b: global nWet I k=   26        4851
(PID.TID 0000.0001) ctrl-wet 17b: global nWet I k=   27        4851
(PID.TID 0000.0001) ctrl-wet 17b: global nWet I k=   28        4851
(PID.TID 0000.0001) ctrl-wet 17b: global nWet I k=   29        4851
(PID.TID 0000.0001) ctrl-wet 17b: global nWet I k=   30        4851
(PID.TID 0000.0001) ctrl-wet 17c: global SUM(K) shifwflx         4851
(PID.TID 0000.0001) ctrl-wet -------------------------------------------------
(PID.TID 0000.0001) ctrl_init: no. of control variables:            4
(PID.TID 0000.0001) ctrl_init: control vector length:          306201
(PID.TID 0000.0001) %MON fCori_max                    =  -1.3709057042516E-04
(PID.TID 0000.0001) %MON fCori_min                    =  -1.4360464034757E-04
(PID.TID 0000.0001) %MON fCori_mean                   =  -1.4069429304699E-04
(PID.TID 0000.0001) %MON fCori_sd                     =   1.9069739624987E-06
(PID.TID 0000.0001) %MON fCoriG_max                   =  -1.3713394327439E-04
(PID.TID 0000.0001) %MON fCoriG_min                   =  -1.4362679550910E-04
(PID.TID 0000.0001) %MON fCoriG_mean                  =  -1.4072713798624E-04
(PID.TID 0000.0001) %MON fCoriG_sd                    =   1.9008093726821E-06
(PID.TID 0000.0001) %MON fCoriCos_max                 =   4.9761447480159E-05
(PID.TID 0000.0001) %MON fCoriCos_min                 =   2.5450607565678E-05
(PID.TID 0000.0001) %MON fCoriCos_mean                =   3.7698922201606E-05
(PID.TID 0000.0001) %MON fCoriCos_sd                  =   7.0920218535055E-06
(PID.TID 0000.0001) INI_CG2D: CG2D normalisation factor =  1.0404366262810520E-03
(PID.TID 0000.0001) 
(PID.TID 0000.0001) // =======================================================
(PID.TID 0000.0001) // Model configuration
(PID.TID 0000.0001) // =======================================================
(PID.TID 0000.0001) //
(PID.TID 0000.0001) // "Physical" paramters ( PARM01 in namelist )
(PID.TID 0000.0001) //
(PID.TID 0000.0001) buoyancyRelation = /* Type of relation to get Buoyancy */
(PID.TID 0000.0001)               'OCEANIC'
(PID.TID 0000.0001)     ;
(PID.TID 0000.0001) fluidIsAir   =  /* fluid major constituent is Air */
(PID.TID 0000.0001)                   F
(PID.TID 0000.0001)     ;
(PID.TID 0000.0001) fluidIsWater =  /* fluid major constituent is Water */
(PID.TID 0000.0001)                   T
(PID.TID 0000.0001)     ;
(PID.TID 0000.0001) usingPCoords =  /* use p (or p*) vertical coordinate */
(PID.TID 0000.0001)                   F
(PID.TID 0000.0001)     ;
(PID.TID 0000.0001) usingZCoords =  /* use z (or z*) vertical coordinate */
(PID.TID 0000.0001)                   T
(PID.TID 0000.0001)     ;
(PID.TID 0000.0001) tRef =   /* Reference temperature profile ( oC or K ) */
(PID.TID 0000.0001)    30 @ -1.900000000000000E+00              /* K =  1: 30 */
(PID.TID 0000.0001)     ;
(PID.TID 0000.0001) sRef =   /* Reference salinity profile ( psu ) */
(PID.TID 0000.0001)    30 @  3.440000000000000E+01              /* K =  1: 30 */
(PID.TID 0000.0001)     ;
(PID.TID 0000.0001) viscAh  =   /* Lateral eddy viscosity ( m^2/s ) */
(PID.TID 0000.0001)                 6.000000000000000E+02
(PID.TID 0000.0001)     ;
(PID.TID 0000.0001) viscAhMax = /* Maximum lateral eddy viscosity ( m^2/s ) */
(PID.TID 0000.0001)                 1.000000000000000E+21
(PID.TID 0000.0001)     ;
(PID.TID 0000.0001) viscAhGrid = /* Grid dependent lateral eddy viscosity ( non-dim. ) */
(PID.TID 0000.0001)                 0.000000000000000E+00
(PID.TID 0000.0001)     ;
(PID.TID 0000.0001) useFullLeith = /* Use Full Form of Leith Viscosity on/off flag*/
(PID.TID 0000.0001)                   F
(PID.TID 0000.0001)     ;
(PID.TID 0000.0001) useStrainTensionVisc= /* Use StrainTension Form of Viscous Operator flag*/
(PID.TID 0000.0001)                   F
(PID.TID 0000.0001)     ;
(PID.TID 0000.0001) useAreaViscLength = /* Use area for visc length instead of geom. mean*/
(PID.TID 0000.0001)                   F
(PID.TID 0000.0001)     ;
(PID.TID 0000.0001) viscC2leith = /* Leith harmonic visc. factor (on grad(vort),non-dim.) */
(PID.TID 0000.0001)                 0.000000000000000E+00
(PID.TID 0000.0001)     ;
(PID.TID 0000.0001) viscC2leithD = /* Leith harmonic viscosity factor (on grad(div),non-dim.)*/
(PID.TID 0000.0001)                 0.000000000000000E+00
(PID.TID 0000.0001)     ;
(PID.TID 0000.0001) viscC2smag = /* Smagorinsky harmonic viscosity factor (non-dim.) */
(PID.TID 0000.0001)                 0.000000000000000E+00
(PID.TID 0000.0001)     ;
(PID.TID 0000.0001) viscA4  =   /* Lateral biharmonic viscosity ( m^4/s ) */
(PID.TID 0000.0001)                 0.000000000000000E+00
(PID.TID 0000.0001)     ;
(PID.TID 0000.0001) viscA4Max = /* Maximum biharmonic viscosity ( m^2/s ) */
(PID.TID 0000.0001)                 1.000000000000000E+21
(PID.TID 0000.0001)     ;
(PID.TID 0000.0001) viscA4Grid = /* Grid dependent biharmonic viscosity ( non-dim. ) */
(PID.TID 0000.0001)                 0.000000000000000E+00
(PID.TID 0000.0001)     ;
(PID.TID 0000.0001) viscC4leith = /* Leith biharm viscosity factor (on grad(vort), non-dim.)*/
(PID.TID 0000.0001)                 0.000000000000000E+00
(PID.TID 0000.0001)     ;
(PID.TID 0000.0001) viscC4leithD = /* Leith biharm viscosity factor (on grad(div), non-dim.) */
(PID.TID 0000.0001)                 0.000000000000000E+00
(PID.TID 0000.0001)     ;
(PID.TID 0000.0001) viscC4Smag = /* Smagorinsky biharm viscosity factor (non-dim) */
(PID.TID 0000.0001)                 0.000000000000000E+00
(PID.TID 0000.0001)     ;
(PID.TID 0000.0001) no_slip_sides =  /* Viscous BCs: No-slip sides */
(PID.TID 0000.0001)                   F
(PID.TID 0000.0001)     ;
(PID.TID 0000.0001) sideDragFactor = /* side-drag scaling factor (non-dim) */
(PID.TID 0000.0001)                 2.000000000000000E+00
(PID.TID 0000.0001)     ;
(PID.TID 0000.0001) viscArNr = /* vertical profile of vertical viscosity ( m^2/s )*/
(PID.TID 0000.0001)    30 @  1.000000000000000E-03              /* K =  1: 30 */
(PID.TID 0000.0001)     ;
(PID.TID 0000.0001) no_slip_bottom =  /* Viscous BCs: No-slip bottom */
(PID.TID 0000.0001)                   F
(PID.TID 0000.0001)     ;
(PID.TID 0000.0001) bottomDragLinear = /* linear bottom-drag coefficient ( m/s ) */
(PID.TID 0000.0001)                 0.000000000000000E+00
(PID.TID 0000.0001)     ;
(PID.TID 0000.0001) bottomDragQuadratic = /* quadratic bottom-drag coefficient (-) */
(PID.TID 0000.0001)                 2.500000000000000E-03
(PID.TID 0000.0001)     ;
(PID.TID 0000.0001) diffKhT =   /* Laplacian diffusion of heat laterally ( m^2/s ) */
(PID.TID 0000.0001)                 1.000000000000000E+02
(PID.TID 0000.0001)     ;
(PID.TID 0000.0001) diffK4T =   /* Biharmonic diffusion of heat laterally ( m^4/s ) */
(PID.TID 0000.0001)                 0.000000000000000E+00
(PID.TID 0000.0001)     ;
(PID.TID 0000.0001) diffKhS =   /* Laplacian diffusion of salt laterally ( m^2/s ) */
(PID.TID 0000.0001)                 1.000000000000000E+02
(PID.TID 0000.0001)     ;
(PID.TID 0000.0001) diffK4S =   /* Biharmonic diffusion of salt laterally ( m^4/s ) */
(PID.TID 0000.0001)                 0.000000000000000E+00
(PID.TID 0000.0001)     ;
(PID.TID 0000.0001) diffKrNrT = /* vertical profile of vertical diffusion of Temp ( m^2/s )*/
(PID.TID 0000.0001)    30 @  5.000000000000000E-05              /* K =  1: 30 */
(PID.TID 0000.0001)     ;
(PID.TID 0000.0001) diffKrNrS = /* vertical profile of vertical diffusion of Salt ( m^2/s )*/
(PID.TID 0000.0001)    30 @  5.000000000000000E-05              /* K =  1: 30 */
(PID.TID 0000.0001)     ;
(PID.TID 0000.0001) diffKrBL79surf = /* Surface diffusion for Bryan and Lewis 79 ( m^2/s ) */
(PID.TID 0000.0001)                 0.000000000000000E+00
(PID.TID 0000.0001)     ;
(PID.TID 0000.0001) diffKrBL79deep = /* Deep diffusion for Bryan and Lewis 1979 ( m^2/s ) */
(PID.TID 0000.0001)                 0.000000000000000E+00
(PID.TID 0000.0001)     ;
(PID.TID 0000.0001) diffKrBL79scl = /* Depth scale for Bryan and Lewis 1979 ( m ) */
(PID.TID 0000.0001)                 2.000000000000000E+02
(PID.TID 0000.0001)     ;
(PID.TID 0000.0001) diffKrBL79Ho = /* Turning depth for Bryan and Lewis 1979 ( m ) */
(PID.TID 0000.0001)                -2.000000000000000E+03
(PID.TID 0000.0001)     ;
(PID.TID 0000.0001) ivdc_kappa = /* Implicit Vertical Diffusivity for Convection ( m^2/s) */
(PID.TID 0000.0001)                 0.000000000000000E+00
(PID.TID 0000.0001)     ;
(PID.TID 0000.0001) hMixCriteria=  /* Criteria for mixed-layer diagnostic */
(PID.TID 0000.0001)                -8.000000000000000E-01
(PID.TID 0000.0001)     ;
(PID.TID 0000.0001) dRhoSmall =  /* Parameter for mixed-layer diagnostic */
(PID.TID 0000.0001)                 1.000000000000000E-06
(PID.TID 0000.0001)     ;
(PID.TID 0000.0001) hMixSmooth=  /* Smoothing parameter for mixed-layer diagnostic */
(PID.TID 0000.0001)                 0.000000000000000E+00
(PID.TID 0000.0001)     ;
(PID.TID 0000.0001) eosType =  /* Type of Equation of State */
(PID.TID 0000.0001)               'JMD95Z'
(PID.TID 0000.0001)     ;
(PID.TID 0000.0001) celsius2K = /* 0 degree Celsius converted to Kelvin ( K ) */
(PID.TID 0000.0001)                 2.731500000000000E+02
(PID.TID 0000.0001)     ;
(PID.TID 0000.0001) rhoConst  = /* Reference density (Boussinesq)  ( kg/m^3 ) */
(PID.TID 0000.0001)                 1.030000000000000E+03
(PID.TID 0000.0001)     ;
(PID.TID 0000.0001) rhoFacC = /* normalized Reference density @ cell-Center (-) */
(PID.TID 0000.0001)    30 @  1.000000000000000E+00              /* K =  1: 30 */
(PID.TID 0000.0001)     ;
(PID.TID 0000.0001) rhoFacF = /* normalized Reference density @ W-Interface (-) */
(PID.TID 0000.0001)    31 @  1.000000000000000E+00              /* K =  1: 31 */
(PID.TID 0000.0001)     ;
(PID.TID 0000.0001) rhoConstFresh = /* Fresh-water reference density ( kg/m^3 ) */
(PID.TID 0000.0001)                 1.030000000000000E+03
(PID.TID 0000.0001)     ;
(PID.TID 0000.0001) gravity =   /* Gravitational acceleration ( m/s^2 ) */
(PID.TID 0000.0001)                 9.810000000000000E+00
(PID.TID 0000.0001)     ;
(PID.TID 0000.0001) gBaro =   /* Barotropic gravity ( m/s^2 ) */
(PID.TID 0000.0001)                 9.810000000000000E+00
(PID.TID 0000.0001)     ;
(PID.TID 0000.0001) rotationPeriod =   /* Rotation Period ( s ) */
(PID.TID 0000.0001)                 8.616400000000000E+04
(PID.TID 0000.0001)     ;
(PID.TID 0000.0001) omega =   /* Angular velocity ( rad/s ) */
(PID.TID 0000.0001)                 7.292123516990375E-05
(PID.TID 0000.0001)     ;
(PID.TID 0000.0001) f0 =   /* Reference coriolis parameter ( 1/s ) */
(PID.TID 0000.0001)                 1.000000000000000E-04
(PID.TID 0000.0001)     ;
(PID.TID 0000.0001) beta =   /* Beta ( 1/(m.s) ) */
(PID.TID 0000.0001)                 9.999999999999999E-12
(PID.TID 0000.0001)     ;
(PID.TID 0000.0001) fPrime =   /* Second coriolis parameter ( 1/s ) */
(PID.TID 0000.0001)                 0.000000000000000E+00
(PID.TID 0000.0001)     ;
(PID.TID 0000.0001) rigidLid =   /* Rigid lid on/off flag */
(PID.TID 0000.0001)                   F
(PID.TID 0000.0001)     ;
(PID.TID 0000.0001) implicitFreeSurface =   /* Implicit free surface on/off flag */
(PID.TID 0000.0001)                   T
(PID.TID 0000.0001)     ;
(PID.TID 0000.0001) freeSurfFac =   /* Implicit free surface factor */
(PID.TID 0000.0001)                 1.000000000000000E+00
(PID.TID 0000.0001)     ;
(PID.TID 0000.0001) implicSurfPress =  /* Surface Pressure implicit factor (0-1)*/
(PID.TID 0000.0001)                 1.000000000000000E+00
(PID.TID 0000.0001)     ;
(PID.TID 0000.0001) implicDiv2Dflow =  /* Barot. Flow Div. implicit factor (0-1)*/
(PID.TID 0000.0001)                 1.000000000000000E+00
(PID.TID 0000.0001)     ;
(PID.TID 0000.0001) uniformLin_PhiSurf = /* use uniform Bo_surf on/off flag*/
(PID.TID 0000.0001)                   T
(PID.TID 0000.0001)     ;
(PID.TID 0000.0001) uniformFreeSurfLev = /* free-surface level-index is uniform */
(PID.TID 0000.0001)                   F
(PID.TID 0000.0001)     ;
(PID.TID 0000.0001) hFacMin =   /* minimum partial cell factor (hFac) */
(PID.TID 0000.0001)                 1.000000000000000E-01
(PID.TID 0000.0001)     ;
(PID.TID 0000.0001) hFacMinDr = /* minimum partial cell thickness ( m) */
(PID.TID 0000.0001)                 1.000000000000000E-01
(PID.TID 0000.0001)     ;
(PID.TID 0000.0001) exactConserv =  /* Exact Volume Conservation on/off flag*/
(PID.TID 0000.0001)                   T
(PID.TID 0000.0001)     ;
(PID.TID 0000.0001) linFSConserveTr = /* Tracer correction for Lin Free Surface on/off flag*/
(PID.TID 0000.0001)                   F
(PID.TID 0000.0001)     ;
(PID.TID 0000.0001) nonlinFreeSurf = /* Non-linear Free Surf. options (-1,0,1,2,3)*/
(PID.TID 0000.0001)                       2
(PID.TID 0000.0001)      -1,0= Off ; 1,2,3= On, 2=+rescale gU,gV, 3=+update cg2d solv.
(PID.TID 0000.0001)     ;
(PID.TID 0000.0001) hFacInf =   /* lower threshold for hFac (nonlinFreeSurf only)*/
(PID.TID 0000.0001)                 5.000000000000000E-02
(PID.TID 0000.0001)     ;
(PID.TID 0000.0001) hFacSup =   /* upper threshold for hFac (nonlinFreeSurf only)*/
(PID.TID 0000.0001)                 2.000000000000000E+00
(PID.TID 0000.0001)     ;
(PID.TID 0000.0001) select_rStar = /* r* Vertical coord. options (=0 r coord.; >0 uses r*)*/
(PID.TID 0000.0001)                       0
(PID.TID 0000.0001)     ;
(PID.TID 0000.0001) useRealFreshWaterFlux = /* Real Fresh Water Flux on/off flag*/
(PID.TID 0000.0001)                   F
(PID.TID 0000.0001)     ;
(PID.TID 0000.0001) temp_EvPrRn = /* Temp. of Evap/Prec/R (UNSET=use local T)(oC)*/
(PID.TID 0000.0001)                 1.234567000000000E+05
(PID.TID 0000.0001)     ;
(PID.TID 0000.0001) salt_EvPrRn = /* Salin. of Evap/Prec/R (UNSET=use local S)(psu)*/
(PID.TID 0000.0001)                 0.000000000000000E+00
(PID.TID 0000.0001)     ;
(PID.TID 0000.0001) selectAddFluid = /* option for mass source/sink of fluid (=0: off) */
(PID.TID 0000.0001)                       0
(PID.TID 0000.0001)     ;
(PID.TID 0000.0001) temp_addMass = /* Temp. of addMass array (UNSET=use local T)(oC)*/
(PID.TID 0000.0001)                 1.234567000000000E+05
(PID.TID 0000.0001)     ;
(PID.TID 0000.0001) salt_addMass = /* Salin. of addMass array (UNSET=use local S)(psu)*/
(PID.TID 0000.0001)                 0.000000000000000E+00
(PID.TID 0000.0001)     ;
(PID.TID 0000.0001) convertFW2Salt = /* convert F.W. Flux to Salt Flux (-1=use local S)(psu)*/
(PID.TID 0000.0001)                 3.340000000000000E+01
(PID.TID 0000.0001)     ;
(PID.TID 0000.0001) use3Dsolver = /* use 3-D pressure solver on/off flag */
(PID.TID 0000.0001)                   F
(PID.TID 0000.0001)     ;
(PID.TID 0000.0001) nonHydrostatic =  /* Non-Hydrostatic on/off flag */
(PID.TID 0000.0001)                   F
(PID.TID 0000.0001)     ;
(PID.TID 0000.0001) nh_Am2 = /* Non-Hydrostatic terms scaling factor */
(PID.TID 0000.0001)                 1.000000000000000E+00
(PID.TID 0000.0001)     ;
(PID.TID 0000.0001) implicitNHPress = /* Non-Hyd Pressure implicit factor (0-1)*/
(PID.TID 0000.0001)                 1.000000000000000E+00
(PID.TID 0000.0001)     ;
(PID.TID 0000.0001) selectNHfreeSurf = /* Non-Hyd (free-)Surface option */
(PID.TID 0000.0001)                       0
(PID.TID 0000.0001)     ;
(PID.TID 0000.0001) quasiHydrostatic = /* Quasi-Hydrostatic on/off flag */
(PID.TID 0000.0001)                   F
(PID.TID 0000.0001)     ;
(PID.TID 0000.0001) calc_wVelocity = /* vertical velocity calculation on/off flag */
(PID.TID 0000.0001)                   T
(PID.TID 0000.0001)     ;
(PID.TID 0000.0001) momStepping =  /* Momentum equation on/off flag */
(PID.TID 0000.0001)                   T
(PID.TID 0000.0001)     ;
(PID.TID 0000.0001) vectorInvariantMomentum= /* Vector-Invariant Momentum on/off */
(PID.TID 0000.0001)                   T
(PID.TID 0000.0001)     ;
(PID.TID 0000.0001) momAdvection =  /* Momentum advection on/off flag */
(PID.TID 0000.0001)                   T
(PID.TID 0000.0001)     ;
(PID.TID 0000.0001) momViscosity =  /* Momentum viscosity on/off flag */
(PID.TID 0000.0001)                   T
(PID.TID 0000.0001)     ;
(PID.TID 0000.0001) momImplVertAdv= /* Momentum implicit vert. advection on/off*/
(PID.TID 0000.0001)                   F
(PID.TID 0000.0001)     ;
(PID.TID 0000.0001) implicitViscosity = /* Implicit viscosity on/off flag */
(PID.TID 0000.0001)                   F
(PID.TID 0000.0001)     ;
(PID.TID 0000.0001) metricTerms =  /* metric-Terms on/off flag */
(PID.TID 0000.0001)                   T
(PID.TID 0000.0001)     ;
(PID.TID 0000.0001) useNHMTerms = /* Non-Hydrostatic Metric-Terms on/off */
(PID.TID 0000.0001)                   F
(PID.TID 0000.0001)     ;
(PID.TID 0000.0001) selectCoriMap = /* Coriolis Map options (0,1,2,3)*/
(PID.TID 0000.0001)                       2
(PID.TID 0000.0001)     0= f-Plane ; 1= Beta-Plane ; 2= Spherical ; 3= read from file
(PID.TID 0000.0001)     ;
(PID.TID 0000.0001) use3dCoriolis = /* 3-D Coriolis on/off flag */
(PID.TID 0000.0001)                   F
(PID.TID 0000.0001)     ;
(PID.TID 0000.0001) useCoriolis =  /* Coriolis on/off flag */
(PID.TID 0000.0001)                   T
(PID.TID 0000.0001)     ;
(PID.TID 0000.0001) useCDscheme =  /* CD scheme on/off flag */
(PID.TID 0000.0001)                   T
(PID.TID 0000.0001)     ;
(PID.TID 0000.0001) useEnergyConservingCoriolis= /* Flx-Form Coriolis scheme flag */
(PID.TID 0000.0001)                   F
(PID.TID 0000.0001)     ;
(PID.TID 0000.0001) useJamartWetPoints= /* Coriolis WetPoints method flag */
(PID.TID 0000.0001)                   F
(PID.TID 0000.0001)     ;
(PID.TID 0000.0001) useJamartMomAdv= /* V.I Non-linear terms Jamart flag */
(PID.TID 0000.0001)                   F
(PID.TID 0000.0001)     ;
(PID.TID 0000.0001) useAbsVorticity= /* V.I Works with f+zeta in Coriolis */
(PID.TID 0000.0001)                   F
(PID.TID 0000.0001)     ;
(PID.TID 0000.0001) selectVortScheme= /* V.I Scheme selector for Vorticity-Term */
(PID.TID 0000.0001)                       1
(PID.TID 0000.0001)    = 0 : enstrophy (Shallow-Water Eq.) conserving scheme by Sadourny, JAS 75
(PID.TID 0000.0001)    = 1 : same as 0 with modified hFac
(PID.TID 0000.0001)    = 2 : energy conserving scheme (used by Sadourny in JAS 75 paper)
(PID.TID 0000.0001)    = 3 : energy (general) and enstrophy (2D, nonDiv.) conserving scheme
(PID.TID 0000.0001)          from Sadourny (Burridge & Haseler, ECMWF Rep.4, 1977)
(PID.TID 0000.0001)     ;
(PID.TID 0000.0001) upwindVorticity= /* V.I Upwind bias vorticity flag */
(PID.TID 0000.0001)                   F
(PID.TID 0000.0001)     ;
(PID.TID 0000.0001) highOrderVorticity= /* V.I High order vort. advect. flag */
(PID.TID 0000.0001)                   F
(PID.TID 0000.0001)     ;
(PID.TID 0000.0001) upwindShear= /* V.I Upwind vertical Shear advection flag */
(PID.TID 0000.0001)                   F
(PID.TID 0000.0001)     ;
(PID.TID 0000.0001) selectKEscheme= /* V.I Kinetic Energy scheme selector */
(PID.TID 0000.0001)                       0
(PID.TID 0000.0001)     ;
(PID.TID 0000.0001) momForcing =  /* Momentum forcing on/off flag */
(PID.TID 0000.0001)                   T
(PID.TID 0000.0001)     ;
(PID.TID 0000.0001) momPressureForcing =  /* Momentum pressure term on/off flag */
(PID.TID 0000.0001)                   T
(PID.TID 0000.0001)     ;
(PID.TID 0000.0001) implicitIntGravWave= /* Implicit Internal Gravity Wave flag */
(PID.TID 0000.0001)                   F
(PID.TID 0000.0001)     ;
(PID.TID 0000.0001) staggerTimeStep =    /* Stagger time stepping on/off flag */
(PID.TID 0000.0001)                   T
(PID.TID 0000.0001)     ;
(PID.TID 0000.0001) doResetHFactors = /* reset thickness factors @ each time-step */
(PID.TID 0000.0001)                   T
(PID.TID 0000.0001)     ;
(PID.TID 0000.0001) multiDimAdvection =  /* enable/disable Multi-Dim Advection */
(PID.TID 0000.0001)                   T
(PID.TID 0000.0001)     ;
(PID.TID 0000.0001) useMultiDimAdvec =   /* Multi-Dim Advection is/is-not used */
(PID.TID 0000.0001)                   F
(PID.TID 0000.0001)     ;
(PID.TID 0000.0001) implicitDiffusion = /* Implicit Diffusion on/off flag */
(PID.TID 0000.0001)                   T
(PID.TID 0000.0001)     ;
(PID.TID 0000.0001) tempStepping =  /* Temperature equation on/off flag */
(PID.TID 0000.0001)                   T
(PID.TID 0000.0001)     ;
(PID.TID 0000.0001) tempAdvection=  /* Temperature advection on/off flag */
(PID.TID 0000.0001)                   T
(PID.TID 0000.0001)     ;
(PID.TID 0000.0001) tempImplVertAdv = /* Temp. implicit vert. advection on/off */
(PID.TID 0000.0001)                   F
(PID.TID 0000.0001)     ;
(PID.TID 0000.0001) tempForcing  =  /* Temperature forcing on/off flag */
(PID.TID 0000.0001)                   T
(PID.TID 0000.0001)     ;
(PID.TID 0000.0001) tempIsActiveTr = /* Temp. is a dynamically Active Tracer */
(PID.TID 0000.0001)                   T
(PID.TID 0000.0001)     ;
(PID.TID 0000.0001) saltStepping =  /* Salinity equation on/off flag */
(PID.TID 0000.0001)                   T
(PID.TID 0000.0001)     ;
(PID.TID 0000.0001) saltAdvection=  /* Salinity advection on/off flag */
(PID.TID 0000.0001)                   T
(PID.TID 0000.0001)     ;
(PID.TID 0000.0001) saltImplVertAdv = /* Sali. implicit vert. advection on/off */
(PID.TID 0000.0001)                   F
(PID.TID 0000.0001)     ;
(PID.TID 0000.0001) saltForcing  =  /* Salinity forcing on/off flag */
(PID.TID 0000.0001)                   T
(PID.TID 0000.0001)     ;
(PID.TID 0000.0001) saltIsActiveTr = /* Salt  is a dynamically Active Tracer */
(PID.TID 0000.0001)                   T
(PID.TID 0000.0001)     ;
(PID.TID 0000.0001)  readBinaryPrec = /* Precision used for reading binary files */
(PID.TID 0000.0001)                      64
(PID.TID 0000.0001)     ;
(PID.TID 0000.0001) writeBinaryPrec = /* Precision used for writing binary files */
(PID.TID 0000.0001)                      32
(PID.TID 0000.0001)     ;
(PID.TID 0000.0001)  globalFiles = /* write "global" (=not per tile) files */
(PID.TID 0000.0001)                   F
(PID.TID 0000.0001)     ;
(PID.TID 0000.0001)  useSingleCpuIO = /* only master MPI process does I/O */
(PID.TID 0000.0001)                   F
(PID.TID 0000.0001)     ;
(PID.TID 0000.0001) /* debLev[*]  : level of debug & auxiliary message printing */
(PID.TID 0000.0001) debLevZero =  0 ; /* level of disabled aux. msg printing */
(PID.TID 0000.0001)    debLevA =  1 ; /* level of minimum  aux. msg printing */
(PID.TID 0000.0001)    debLevB =  2 ; /* level of low aux. print (report read-file opening)*/
(PID.TID 0000.0001)    debLevC =  3 ; /* level of moderate debug prt (most pkgs debug msg) */
(PID.TID 0000.0001)    debLevD =  4 ; /* level of enhanced debug prt (add DEBUG_STATS prt) */
(PID.TID 0000.0001)    debLevE =  5 ; /* level of extensive debug printing */
(PID.TID 0000.0001) debugLevel =  /* select debug printing level */
(PID.TID 0000.0001)                       1
(PID.TID 0000.0001)     ;
(PID.TID 0000.0001) //
(PID.TID 0000.0001) // Elliptic solver(s) paramters ( PARM02 in namelist )
(PID.TID 0000.0001) //
(PID.TID 0000.0001) cg2dMaxIters =   /* Upper limit on 2d con. grad iterations  */
(PID.TID 0000.0001)                    1000
(PID.TID 0000.0001)     ;
(PID.TID 0000.0001) cg2dChkResFreq =   /* 2d con. grad convergence test frequency */
(PID.TID 0000.0001)                       1
(PID.TID 0000.0001)     ;
(PID.TID 0000.0001) cg2dTargetResidual =   /* 2d con. grad target residual  */
(PID.TID 0000.0001)                 1.000000000000000E-13
(PID.TID 0000.0001)     ;
(PID.TID 0000.0001) cg2dTargetResWunit =   /* CG2d target residual [W units] */
(PID.TID 0000.0001)                -1.000000000000000E+00
(PID.TID 0000.0001)     ;
(PID.TID 0000.0001) cg2dPreCondFreq =   /* Freq. for updating cg2d preconditioner */
(PID.TID 0000.0001)                       1
(PID.TID 0000.0001)     ;
(PID.TID 0000.0001) useSRCGSolver =  /* use single reduction CG solver(s) */
(PID.TID 0000.0001)                   F
(PID.TID 0000.0001)     ;
(PID.TID 0000.0001) printResidualFreq = /* Freq. for printing CG residual */
(PID.TID 0000.0001)                       0
(PID.TID 0000.0001)     ;
(PID.TID 0000.0001) //
(PID.TID 0000.0001) // Time stepping paramters ( PARM03 in namelist )
(PID.TID 0000.0001) //
(PID.TID 0000.0001) deltaTmom =   /* Momentum equation timestep ( s ) */
(PID.TID 0000.0001)                 1.800000000000000E+03
(PID.TID 0000.0001)     ;
(PID.TID 0000.0001) deltaTfreesurf = /* FreeSurface equation timestep ( s ) */
(PID.TID 0000.0001)                 1.800000000000000E+03
(PID.TID 0000.0001)     ;
(PID.TID 0000.0001) dTtracerLev =  /* Tracer equation timestep ( s ) */
(PID.TID 0000.0001)    30 @  1.800000000000000E+03              /* K =  1: 30 */
(PID.TID 0000.0001)     ;
(PID.TID 0000.0001) deltaTClock  =   /* Model clock timestep ( s ) */
(PID.TID 0000.0001)                 1.800000000000000E+03
(PID.TID 0000.0001)     ;
(PID.TID 0000.0001) cAdjFreq =   /* Convective adjustment interval ( s ) */
(PID.TID 0000.0001)                 1.000000000000000E+00
(PID.TID 0000.0001)     ;
(PID.TID 0000.0001) momForcingOutAB = /* =1: take Momentum Forcing out of Adams-Bash. stepping */
(PID.TID 0000.0001)                       0
(PID.TID 0000.0001)     ;
(PID.TID 0000.0001) tracForcingOutAB = /* =1: take T,S,pTr Forcing out of Adams-Bash. stepping */
(PID.TID 0000.0001)                       0
(PID.TID 0000.0001)     ;
(PID.TID 0000.0001) momDissip_In_AB = /* put Dissipation Tendency in Adams-Bash. stepping */
(PID.TID 0000.0001)                   T
(PID.TID 0000.0001)     ;
(PID.TID 0000.0001) doAB_onGtGs = /* apply AB on Tendencies (rather than on T,S)*/
(PID.TID 0000.0001)                   T
(PID.TID 0000.0001)     ;
(PID.TID 0000.0001) abEps =   /* Adams-Bashforth-2 stabilizing weight */
(PID.TID 0000.0001)                 1.000000000000000E-01
(PID.TID 0000.0001)     ;
(PID.TID 0000.0001) tauCD =   /* CD coupling time-scale ( s ) */
(PID.TID 0000.0001)                 4.000000000000000E+05
(PID.TID 0000.0001)     ;
(PID.TID 0000.0001) rCD =   /* Normalised CD coupling parameter */
(PID.TID 0000.0001)                 9.955000000000001E-01
(PID.TID 0000.0001)     ;
(PID.TID 0000.0001) epsAB_CD = /* AB-2 stabilizing weight for CD-scheme*/
(PID.TID 0000.0001)                 1.000000000000000E-01
(PID.TID 0000.0001)     ;
(PID.TID 0000.0001) pickupStrictlyMatch= /* stop if pickup do not strictly match */
(PID.TID 0000.0001)                   T
(PID.TID 0000.0001)     ;
(PID.TID 0000.0001) nIter0   =   /* Run starting timestep number */
(PID.TID 0000.0001)                    8640
(PID.TID 0000.0001)     ;
(PID.TID 0000.0001) nTimeSteps = /* Number of timesteps */
(PID.TID 0000.0001)                      10
(PID.TID 0000.0001)     ;
(PID.TID 0000.0001) nEndIter =   /* Run ending timestep number */
(PID.TID 0000.0001)                    8650
(PID.TID 0000.0001)     ;
(PID.TID 0000.0001) baseTime =   /* Model base time ( s ) */
(PID.TID 0000.0001)                 0.000000000000000E+00
(PID.TID 0000.0001)     ;
(PID.TID 0000.0001) startTime =  /* Run start time ( s ) */
(PID.TID 0000.0001)                 1.555200000000000E+07
(PID.TID 0000.0001)     ;
(PID.TID 0000.0001) endTime  =   /* Integration ending time ( s ) */
(PID.TID 0000.0001)                 1.557000000000000E+07
(PID.TID 0000.0001)     ;
(PID.TID 0000.0001) pChkPtFreq = /* Permanent restart/pickup file interval ( s ) */
(PID.TID 0000.0001)                 0.000000000000000E+00
(PID.TID 0000.0001)     ;
(PID.TID 0000.0001) chkPtFreq  = /* Rolling restart/pickup file interval ( s ) */
(PID.TID 0000.0001)                 0.000000000000000E+00
(PID.TID 0000.0001)     ;
(PID.TID 0000.0001) pickup_write_mdsio =   /* Model IO flag. */
(PID.TID 0000.0001)                   T
(PID.TID 0000.0001)     ;
(PID.TID 0000.0001) pickup_read_mdsio =   /* Model IO flag. */
(PID.TID 0000.0001)                   T
(PID.TID 0000.0001)     ;
(PID.TID 0000.0001) pickup_write_mnc =   /* Model IO flag. */
(PID.TID 0000.0001)                   F
(PID.TID 0000.0001)     ;
(PID.TID 0000.0001) pickup_read_mnc =   /* Model IO flag. */
(PID.TID 0000.0001)                   F
(PID.TID 0000.0001)     ;
(PID.TID 0000.0001) pickup_write_immed =   /* Model IO flag. */
(PID.TID 0000.0001)                   F
(PID.TID 0000.0001)     ;
(PID.TID 0000.0001) writePickupAtEnd =   /* Model IO flag. */
(PID.TID 0000.0001)                   T
(PID.TID 0000.0001)     ;
(PID.TID 0000.0001) dumpFreq =   /* Model state write out interval ( s ). */
(PID.TID 0000.0001)                 0.000000000000000E+00
(PID.TID 0000.0001)     ;
(PID.TID 0000.0001) dumpInitAndLast= /* write out Initial & Last iter. model state */
(PID.TID 0000.0001)                   T
(PID.TID 0000.0001)     ;
(PID.TID 0000.0001) snapshot_mdsio =   /* Model IO flag. */
(PID.TID 0000.0001)                   F
(PID.TID 0000.0001)     ;
(PID.TID 0000.0001) snapshot_mnc =   /* Model IO flag. */
(PID.TID 0000.0001)                   T
(PID.TID 0000.0001)     ;
(PID.TID 0000.0001) monitorFreq =   /* Monitor output interval ( s ). */
(PID.TID 0000.0001)                 1.000000000000000E+00
(PID.TID 0000.0001)     ;
(PID.TID 0000.0001) monitorSelect = /* select group of variables to monitor */
(PID.TID 0000.0001)                       2
(PID.TID 0000.0001)     ;
(PID.TID 0000.0001) monitor_stdio =   /* Model IO flag. */
(PID.TID 0000.0001)                   T
(PID.TID 0000.0001)     ;
(PID.TID 0000.0001) monitor_mnc =   /* Model IO flag. */
(PID.TID 0000.0001)                   F
(PID.TID 0000.0001)     ;
(PID.TID 0000.0001) externForcingPeriod =   /* forcing period (s) */
(PID.TID 0000.0001)                 0.000000000000000E+00
(PID.TID 0000.0001)     ;
(PID.TID 0000.0001) externForcingCycle =   /* period of the cyle (s). */
(PID.TID 0000.0001)                 0.000000000000000E+00
(PID.TID 0000.0001)     ;
(PID.TID 0000.0001) tauThetaClimRelax =   /* relaxation time scale (s) */
(PID.TID 0000.0001)                 0.000000000000000E+00
(PID.TID 0000.0001)     ;
(PID.TID 0000.0001) tauSaltClimRelax =   /* relaxation time scale (s) */
(PID.TID 0000.0001)                 0.000000000000000E+00
(PID.TID 0000.0001)     ;
(PID.TID 0000.0001) latBandClimRelax =   /* max. Lat. where relaxation */
(PID.TID 0000.0001)                 1.800000000000000E+02
(PID.TID 0000.0001)     ;
(PID.TID 0000.0001) //
(PID.TID 0000.0001) // Gridding paramters ( PARM04 in namelist )
(PID.TID 0000.0001) //
(PID.TID 0000.0001) usingCartesianGrid = /* Cartesian coordinates flag ( True/False ) */
(PID.TID 0000.0001)                   F
(PID.TID 0000.0001)     ;
(PID.TID 0000.0001) usingCylindricalGrid = /* Cylindrical coordinates flag ( True/False ) */
(PID.TID 0000.0001)                   F
(PID.TID 0000.0001)     ;
(PID.TID 0000.0001) usingSphericalPolarGrid = /* Spherical coordinates flag ( True/False ) */
(PID.TID 0000.0001)                   T
(PID.TID 0000.0001)     ;
(PID.TID 0000.0001) usingCurvilinearGrid = /* Curvilinear coordinates flag ( True/False ) */
(PID.TID 0000.0001)                   F
(PID.TID 0000.0001)     ;
(PID.TID 0000.0001) selectSigmaCoord = /* Hybrid-Sigma Vert. Coordinate option */
(PID.TID 0000.0001)                       0
(PID.TID 0000.0001)     ;
(PID.TID 0000.0001) Ro_SeaLevel = /* r(1) ( units of r ==  m ) */
(PID.TID 0000.0001)                 0.000000000000000E+00
(PID.TID 0000.0001)     ;
(PID.TID 0000.0001) rSigmaBnd = /* r/sigma transition ( units of r ==  m ) */
(PID.TID 0000.0001)                 1.234567000000000E+05
(PID.TID 0000.0001)     ;
(PID.TID 0000.0001) rkSign =   /* index orientation relative to vertical coordinate */
(PID.TID 0000.0001)                -1.000000000000000E+00
(PID.TID 0000.0001)     ;
(PID.TID 0000.0001) gravitySign = /* gravity orientation relative to vertical coordinate */
(PID.TID 0000.0001)                -1.000000000000000E+00
(PID.TID 0000.0001)     ;
(PID.TID 0000.0001) mass2rUnit = /* convert mass per unit area [kg/m2] to r-units [m] */
(PID.TID 0000.0001)                 9.708737864077669E-04
(PID.TID 0000.0001)     ;
(PID.TID 0000.0001) rUnit2mass = /* convert r-units [m] to mass per unit area [kg/m2] */
(PID.TID 0000.0001)                 1.030000000000000E+03
(PID.TID 0000.0001)     ;
(PID.TID 0000.0001) drC =   /* C spacing ( units of r ) */
(PID.TID 0000.0001)                 1.500000000000000E+01,      /* K =  1 */
(PID.TID 0000.0001)    29 @  3.000000000000000E+01              /* K =  2: 30 */
(PID.TID 0000.0001)     ;
(PID.TID 0000.0001) drF =   /* W spacing ( units of r ) */
(PID.TID 0000.0001)    30 @  3.000000000000000E+01              /* K =  1: 30 */
(PID.TID 0000.0001)     ;
(PID.TID 0000.0001) delX = /* U spacing ( m - cartesian, degrees - spherical ) */
(PID.TID 0000.0001)    50 @  3.000000000000000E-01              /* I =  1: 50 */
(PID.TID 0000.0001)     ;
(PID.TID 0000.0001) delY = /* V spacing ( m - cartesian, degrees - spherical ) */
(PID.TID 0000.0001)   100 @  1.000000000000000E-01              /* J =  1:100 */
(PID.TID 0000.0001)     ;
(PID.TID 0000.0001) xgOrigin = /* X-axis origin of West  edge (cartesian: m, lat-lon: deg.) */
(PID.TID 0000.0001)                 0.000000000000000E+00
(PID.TID 0000.0001)     ;
(PID.TID 0000.0001) ygOrigin = /* Y-axis origin of South edge (cartesian: m, lat-lon: deg.) */
(PID.TID 0000.0001)                -8.000000000000000E+01
(PID.TID 0000.0001)     ;
(PID.TID 0000.0001) rSphere =  /* Radius ( ignored - cartesian, m - spherical ) */
(PID.TID 0000.0001)                 6.370000000000000E+06
(PID.TID 0000.0001)     ;
(PID.TID 0000.0001) deepAtmosphere = /* Deep/Shallow Atmosphere flag (True/False) */
(PID.TID 0000.0001)                   F
(PID.TID 0000.0001)     ;
(PID.TID 0000.0001) xC =  /* xC(:,1,:,1) : P-point X coord ( deg. or m if cartesian) */
(PID.TID 0000.0001)                 1.500000000000001E-01,      /* I =  1 */
(PID.TID 0000.0001)                 4.500000000000001E-01,      /* I =  2 */
(PID.TID 0000.0001)                 7.500000000000002E-01,      /* I =  3 */
(PID.TID 0000.0001)                 1.050000000000000E+00,      /* I =  4 */
(PID.TID 0000.0001)                 1.350000000000000E+00,      /* I =  5 */
(PID.TID 0000.0001)                 1.650000000000000E+00,      /* I =  6 */
(PID.TID 0000.0001)                 1.950000000000000E+00,      /* I =  7 */
(PID.TID 0000.0001)                 2.250000000000000E+00,      /* I =  8 */
(PID.TID 0000.0001)                 2.550000000000000E+00,      /* I =  9 */
(PID.TID 0000.0001)                 2.850000000000000E+00,      /* I = 10 */
(PID.TID 0000.0001)                 3.149999999999999E+00,      /* I = 11 */
(PID.TID 0000.0001)                 3.449999999999999E+00,      /* I = 12 */
(PID.TID 0000.0001)                 3.749999999999999E+00,      /* I = 13 */
(PID.TID 0000.0001)                 4.049999999999999E+00,      /* I = 14 */
(PID.TID 0000.0001)                 4.350000000000000E+00,      /* I = 15 */
(PID.TID 0000.0001)                 4.649999999999999E+00,      /* I = 16 */
(PID.TID 0000.0001)                 4.949999999999999E+00,      /* I = 17 */
(PID.TID 0000.0001)                 5.249999999999998E+00,      /* I = 18 */
(PID.TID 0000.0001)                 5.549999999999999E+00,      /* I = 19 */
(PID.TID 0000.0001)                 5.849999999999998E+00,      /* I = 20 */
(PID.TID 0000.0001)                 6.149999999999999E+00,      /* I = 21 */
(PID.TID 0000.0001)                 6.449999999999998E+00,      /* I = 22 */
(PID.TID 0000.0001)                 6.749999999999998E+00,      /* I = 23 */
(PID.TID 0000.0001)                 7.049999999999997E+00,      /* I = 24 */
(PID.TID 0000.0001)                 7.349999999999997E+00,      /* I = 25 */
(PID.TID 0000.0001)                 7.649999999999997E+00,      /* I = 26 */
(PID.TID 0000.0001)                 7.949999999999998E+00,      /* I = 27 */
(PID.TID 0000.0001)                 8.249999999999998E+00,      /* I = 28 */
(PID.TID 0000.0001)                 8.549999999999999E+00,      /* I = 29 */
(PID.TID 0000.0001)                 8.850000000000000E+00,      /* I = 30 */
(PID.TID 0000.0001)                 9.150000000000000E+00,      /* I = 31 */
(PID.TID 0000.0001)                 9.450000000000001E+00,      /* I = 32 */
(PID.TID 0000.0001)                 9.750000000000002E+00,      /* I = 33 */
(PID.TID 0000.0001)                 1.005000000000000E+01,      /* I = 34 */
(PID.TID 0000.0001)                 1.035000000000000E+01,      /* I = 35 */
(PID.TID 0000.0001)                 1.065000000000000E+01,      /* I = 36 */
(PID.TID 0000.0001)                 1.095000000000001E+01,      /* I = 37 */
(PID.TID 0000.0001)                 1.125000000000001E+01,      /* I = 38 */
(PID.TID 0000.0001)                 1.155000000000000E+01,      /* I = 39 */
(PID.TID 0000.0001)                 1.185000000000001E+01,      /* I = 40 */
(PID.TID 0000.0001)                 1.215000000000001E+01,      /* I = 41 */
(PID.TID 0000.0001)                 1.245000000000001E+01,      /* I = 42 */
(PID.TID 0000.0001)                 1.275000000000001E+01,      /* I = 43 */
(PID.TID 0000.0001)                 1.305000000000001E+01,      /* I = 44 */
(PID.TID 0000.0001)                 1.335000000000001E+01,      /* I = 45 */
(PID.TID 0000.0001)                 1.365000000000001E+01,      /* I = 46 */
(PID.TID 0000.0001)                 1.395000000000001E+01,      /* I = 47 */
(PID.TID 0000.0001)                 1.425000000000001E+01,      /* I = 48 */
(PID.TID 0000.0001)                 1.455000000000001E+01,      /* I = 49 */
(PID.TID 0000.0001)                 1.485000000000001E+01       /* I = 50 */
(PID.TID 0000.0001)     ;
(PID.TID 0000.0001) yC =  /* yC(1,:,1,:) : P-point Y coord ( deg. or m if cartesian) */
(PID.TID 0000.0001)                -7.995000000000000E+01,      /* J =  1 */
(PID.TID 0000.0001)                -7.985000000000001E+01,      /* J =  2 */
(PID.TID 0000.0001)                -7.975000000000001E+01,      /* J =  3 */
(PID.TID 0000.0001)      . . .
(PID.TID 0000.0001)                -7.775000000000013E+01,      /* J = 23 */
(PID.TID 0000.0001)                -7.765000000000013E+01,      /* J = 24 */
(PID.TID 0000.0001)                -7.755000000000014E+01,      /* J = 25 */
(PID.TID 0000.0001)                -7.745000000000014E+01,      /* J = 26 */
(PID.TID 0000.0001)                -7.735000000000015E+01,      /* J = 27 */
(PID.TID 0000.0001)                -7.725000000000016E+01,      /* J = 28 */
(PID.TID 0000.0001)      . . .
(PID.TID 0000.0001)                -7.525000000000027E+01,      /* J = 48 */
(PID.TID 0000.0001)                -7.515000000000028E+01,      /* J = 49 */
(PID.TID 0000.0001)                -7.505000000000028E+01,      /* J = 50 */
(PID.TID 0000.0001)                -7.495000000000029E+01,      /* J = 51 */
(PID.TID 0000.0001)                -7.485000000000029E+01,      /* J = 52 */
(PID.TID 0000.0001)                -7.475000000000030E+01,      /* J = 53 */
(PID.TID 0000.0001)      . . .
(PID.TID 0000.0001)                -7.275000000000041E+01,      /* J = 73 */
(PID.TID 0000.0001)                -7.265000000000042E+01,      /* J = 74 */
(PID.TID 0000.0001)                -7.255000000000042E+01,      /* J = 75 */
(PID.TID 0000.0001)                -7.245000000000043E+01,      /* J = 76 */
(PID.TID 0000.0001)                -7.235000000000043E+01,      /* J = 77 */
(PID.TID 0000.0001)                -7.225000000000044E+01,      /* J = 78 */
(PID.TID 0000.0001)      . . .
(PID.TID 0000.0001)                -7.025000000000055E+01,      /* J = 98 */
(PID.TID 0000.0001)                -7.015000000000056E+01,      /* J = 99 */
(PID.TID 0000.0001)                -7.005000000000057E+01       /* J =100 */
(PID.TID 0000.0001)     ;
(PID.TID 0000.0001) rcoord = /* P-point R coordinate (  units of r ) */
(PID.TID 0000.0001)                -1.500000000000000E+01,      /* K =  1 */
(PID.TID 0000.0001)                -4.500000000000000E+01,      /* K =  2 */
(PID.TID 0000.0001)                -7.500000000000000E+01,      /* K =  3 */
(PID.TID 0000.0001)                -1.050000000000000E+02,      /* K =  4 */
(PID.TID 0000.0001)                -1.350000000000000E+02,      /* K =  5 */
(PID.TID 0000.0001)                -1.650000000000000E+02,      /* K =  6 */
(PID.TID 0000.0001)                -1.950000000000000E+02,      /* K =  7 */
(PID.TID 0000.0001)                -2.250000000000000E+02,      /* K =  8 */
(PID.TID 0000.0001)                -2.550000000000000E+02,      /* K =  9 */
(PID.TID 0000.0001)                -2.850000000000000E+02,      /* K = 10 */
(PID.TID 0000.0001)                -3.150000000000000E+02,      /* K = 11 */
(PID.TID 0000.0001)                -3.450000000000000E+02,      /* K = 12 */
(PID.TID 0000.0001)                -3.750000000000000E+02,      /* K = 13 */
(PID.TID 0000.0001)                -4.050000000000000E+02,      /* K = 14 */
(PID.TID 0000.0001)                -4.350000000000000E+02,      /* K = 15 */
(PID.TID 0000.0001)                -4.650000000000000E+02,      /* K = 16 */
(PID.TID 0000.0001)                -4.950000000000000E+02,      /* K = 17 */
(PID.TID 0000.0001)                -5.250000000000000E+02,      /* K = 18 */
(PID.TID 0000.0001)                -5.550000000000000E+02,      /* K = 19 */
(PID.TID 0000.0001)                -5.850000000000000E+02,      /* K = 20 */
(PID.TID 0000.0001)                -6.150000000000000E+02,      /* K = 21 */
(PID.TID 0000.0001)                -6.450000000000000E+02,      /* K = 22 */
(PID.TID 0000.0001)                -6.750000000000000E+02,      /* K = 23 */
(PID.TID 0000.0001)                -7.050000000000000E+02,      /* K = 24 */
(PID.TID 0000.0001)                -7.350000000000000E+02,      /* K = 25 */
(PID.TID 0000.0001)                -7.650000000000000E+02,      /* K = 26 */
(PID.TID 0000.0001)                -7.950000000000000E+02,      /* K = 27 */
(PID.TID 0000.0001)                -8.250000000000000E+02,      /* K = 28 */
(PID.TID 0000.0001)                -8.550000000000000E+02,      /* K = 29 */
(PID.TID 0000.0001)                -8.850000000000000E+02       /* K = 30 */
(PID.TID 0000.0001)     ;
(PID.TID 0000.0001) rF =   /* W-Interf. R coordinate (  units of r ) */
(PID.TID 0000.0001)                 0.000000000000000E+00,      /* K =  1 */
(PID.TID 0000.0001)                -3.000000000000000E+01,      /* K =  2 */
(PID.TID 0000.0001)                -6.000000000000000E+01,      /* K =  3 */
(PID.TID 0000.0001)                -9.000000000000000E+01,      /* K =  4 */
(PID.TID 0000.0001)                -1.200000000000000E+02,      /* K =  5 */
(PID.TID 0000.0001)                -1.500000000000000E+02,      /* K =  6 */
(PID.TID 0000.0001)                -1.800000000000000E+02,      /* K =  7 */
(PID.TID 0000.0001)                -2.100000000000000E+02,      /* K =  8 */
(PID.TID 0000.0001)                -2.400000000000000E+02,      /* K =  9 */
(PID.TID 0000.0001)                -2.700000000000000E+02,      /* K = 10 */
(PID.TID 0000.0001)                -3.000000000000000E+02,      /* K = 11 */
(PID.TID 0000.0001)                -3.300000000000000E+02,      /* K = 12 */
(PID.TID 0000.0001)                -3.600000000000000E+02,      /* K = 13 */
(PID.TID 0000.0001)                -3.900000000000000E+02,      /* K = 14 */
(PID.TID 0000.0001)                -4.200000000000000E+02,      /* K = 15 */
(PID.TID 0000.0001)                -4.500000000000000E+02,      /* K = 16 */
(PID.TID 0000.0001)                -4.800000000000000E+02,      /* K = 17 */
(PID.TID 0000.0001)                -5.100000000000000E+02,      /* K = 18 */
(PID.TID 0000.0001)                -5.400000000000000E+02,      /* K = 19 */
(PID.TID 0000.0001)                -5.700000000000000E+02,      /* K = 20 */
(PID.TID 0000.0001)                -6.000000000000000E+02,      /* K = 21 */
(PID.TID 0000.0001)                -6.300000000000000E+02,      /* K = 22 */
(PID.TID 0000.0001)                -6.600000000000000E+02,      /* K = 23 */
(PID.TID 0000.0001)                -6.900000000000000E+02,      /* K = 24 */
(PID.TID 0000.0001)                -7.200000000000000E+02,      /* K = 25 */
(PID.TID 0000.0001)                -7.500000000000000E+02,      /* K = 26 */
(PID.TID 0000.0001)                -7.800000000000000E+02,      /* K = 27 */
(PID.TID 0000.0001)                -8.100000000000000E+02,      /* K = 28 */
(PID.TID 0000.0001)                -8.400000000000000E+02,      /* K = 29 */
(PID.TID 0000.0001)                -8.700000000000000E+02,      /* K = 30 */
(PID.TID 0000.0001)                -9.000000000000000E+02       /* K = 31 */
(PID.TID 0000.0001)     ;
(PID.TID 0000.0001) deepFacC = /* deep-model grid factor @ cell-Center (-) */
(PID.TID 0000.0001)    30 @  1.000000000000000E+00              /* K =  1: 30 */
(PID.TID 0000.0001)     ;
(PID.TID 0000.0001) deepFacF = /* deep-model grid factor @ W-Interface (-) */
(PID.TID 0000.0001)    31 @  1.000000000000000E+00              /* K =  1: 31 */
(PID.TID 0000.0001)     ;
(PID.TID 0000.0001) rVel2wUnit = /* convert units: rVel -> wSpeed (=1 if z-coord)*/
(PID.TID 0000.0001)    31 @  1.000000000000000E+00              /* K =  1: 31 */
(PID.TID 0000.0001)     ;
(PID.TID 0000.0001) wUnit2rVel = /* convert units: wSpeed -> rVel (=1 if z-coord)*/
(PID.TID 0000.0001)    31 @  1.000000000000000E+00              /* K =  1: 31 */
(PID.TID 0000.0001)     ;
(PID.TID 0000.0001) dBdrRef = /* Vertical grad. of reference buoyancy [(m/s/r)^2] */
(PID.TID 0000.0001)    30 @  0.000000000000000E+00              /* K =  1: 30 */
(PID.TID 0000.0001)     ;
(PID.TID 0000.0001) rotateGrid = /* use rotated grid ( True/False ) */
(PID.TID 0000.0001)                   F
(PID.TID 0000.0001)     ;
(PID.TID 0000.0001) phiEuler = /* Euler angle, rotation about original z-coordinate [rad] */
(PID.TID 0000.0001)                 0.000000000000000E+00
(PID.TID 0000.0001)     ;
(PID.TID 0000.0001) thetaEuler = /* Euler angle, rotation about new x-coordinate [rad] */
(PID.TID 0000.0001)                 0.000000000000000E+00
(PID.TID 0000.0001)     ;
(PID.TID 0000.0001) psiEuler = /* Euler angle, rotation about new z-coordinate [rad] */
(PID.TID 0000.0001)                 0.000000000000000E+00
(PID.TID 0000.0001)     ;
(PID.TID 0000.0001) dxF =  /* dxF(:,1,:,1) ( units: m ) */
(PID.TID 0000.0001)    50 @  5.820391490558872E+03              /* I =  1: 50 */
(PID.TID 0000.0001)     ;
(PID.TID 0000.0001) dxF =  /* dxF(1,:,1,:) ( units: m ) */
(PID.TID 0000.0001)                 5.820391490558872E+03,      /* J =  1 */
(PID.TID 0000.0001)                 5.877701765291692E+03,      /* J =  2 */
(PID.TID 0000.0001)                 5.934994135525598E+03,      /* J =  3 */
(PID.TID 0000.0001)      . . .
(PID.TID 0000.0001)                 7.076813247621209E+03,      /* J = 23 */
(PID.TID 0000.0001)                 7.133689397375063E+03,      /* J = 24 */
(PID.TID 0000.0001)                 7.190543816673855E+03,      /* J = 25 */
(PID.TID 0000.0001)                 7.247376332329164E+03,      /* J = 26 */
(PID.TID 0000.0001)                 7.304186771219292E+03,      /* J = 27 */
(PID.TID 0000.0001)                 7.360974960289787E+03,      /* J = 28 */
(PID.TID 0000.0001)      . . .
(PID.TID 0000.0001)                 8.491800393599013E+03,      /* J = 48 */
(PID.TID 0000.0001)                 8.548081485571185E+03,      /* J = 49 */
(PID.TID 0000.0001)                 8.604336538604706E+03,      /* J = 50 */
(PID.TID 0000.0001)                 8.660565381336924E+03,      /* J = 51 */
(PID.TID 0000.0001)                 8.716767842485036E+03,      /* J = 52 */
(PID.TID 0000.0001)                 8.772943750846600E+03,      /* J = 53 */
(PID.TID 0000.0001)      . . .
(PID.TID 0000.0001)                 9.890622914885218E+03,      /* J = 73 */
(PID.TID 0000.0001)                 9.946201814818334E+03,      /* J = 74 */
(PID.TID 0000.0001)                 1.000175041689580E+04,      /* J = 75 */
(PID.TID 0000.0001)                 1.005726855190695E+04,      /* J = 76 */
(PID.TID 0000.0001)                 1.011275605073392E+04,      /* J = 77 */
(PID.TID 0000.0001)                 1.016821274435215E+04,      /* J = 78 */
(PID.TID 0000.0001)      . . .
(PID.TID 0000.0001)                 1.127061807330668E+04,      /* J = 98 */
(PID.TID 0000.0001)                 1.132538898360582E+04,      /* J = 99 */
(PID.TID 0000.0001)                 1.138012539480601E+04       /* J =100 */
(PID.TID 0000.0001)     ;
(PID.TID 0000.0001) dyF =  /* dyF(:,1,:,1) ( units: m ) */
(PID.TID 0000.0001)    50 @  1.111774733520388E+04              /* I =  1: 50 */
(PID.TID 0000.0001)     ;
(PID.TID 0000.0001) dyF =  /* dyF(1,:,1,:) ( units: m ) */
(PID.TID 0000.0001)   100 @  1.111774733520388E+04              /* J =  1:100 */
(PID.TID 0000.0001)     ;
(PID.TID 0000.0001) dxG =  /* dxG(:,1,:,1) ( units: m ) */
(PID.TID 0000.0001)    50 @  5.791729693558576E+03              /* I =  1: 50 */
(PID.TID 0000.0001)     ;
(PID.TID 0000.0001) dxG =  /* dxG(1,:,1,:) ( units: m ) */
(PID.TID 0000.0001)                 5.791729693558576E+03,      /* J =  1 */
(PID.TID 0000.0001)                 5.849048855077854E+03,      /* J =  2 */
(PID.TID 0000.0001)                 5.906350199379949E+03,      /* J =  3 */
(PID.TID 0000.0001)      . . .
(PID.TID 0000.0001)                 7.048367077963129E+03,      /* J = 23 */
(PID.TID 0000.0001)                 7.105254027978149E+03,      /* J = 24 */
(PID.TID 0000.0001)                 7.162119334157175E+03,      /* J = 25 */
(PID.TID 0000.0001)                 7.218962823278620E+03,      /* J = 26 */
(PID.TID 0000.0001)                 7.275784322187360E+03,      /* J = 27 */
(PID.TID 0000.0001)                 7.332583657795253E+03,      /* J = 28 */
(PID.TID 0000.0001)      . . .
(PID.TID 0000.0001)                 8.463650136583461E+03,      /* J = 48 */
(PID.TID 0000.0001)                 8.519944183739159E+03,      /* J = 49 */
(PID.TID 0000.0001)                 8.576212277667308E+03,      /* J = 50 */
(PID.TID 0000.0001)                 8.632454246965530E+03,      /* J = 51 */
(PID.TID 0000.0001)                 8.688669920311038E+03,      /* J = 52 */
(PID.TID 0000.0001)                 8.744859126461139E+03,      /* J = 53 */
(PID.TID 0000.0001)      . . .
(PID.TID 0000.0001)                 9.862822156126382E+03,      /* J = 73 */
(PID.TID 0000.0001)                 9.918416141504455E+03,      /* J = 74 */
(PID.TID 0000.0001)                 9.973979913666863E+03,      /* J = 75 */
(PID.TID 0000.0001)                 1.002951330335672E+04,      /* J = 76 */
(PID.TID 0000.0001)                 1.008501614140969E+04,      /* J = 77 */
(PID.TID 0000.0001)                 1.014048825875450E+04,      /* J = 78 */
(PID.TID 0000.0001)      . . .
(PID.TID 0000.0001)                 1.124321973312895E+04,      /* J = 98 */
(PID.TID 0000.0001)                 1.129800783041847E+04,      /* J = 99 */
(PID.TID 0000.0001)                 1.135276151201679E+04       /* J =100 */
(PID.TID 0000.0001)     ;
(PID.TID 0000.0001) dyG =  /* dyG(:,1,:,1) ( units: m ) */
(PID.TID 0000.0001)    50 @  1.111774733520388E+04              /* I =  1: 50 */
(PID.TID 0000.0001)     ;
(PID.TID 0000.0001) dyG =  /* dyG(1,:,1,:) ( units: m ) */
(PID.TID 0000.0001)   100 @  1.111774733520388E+04              /* J =  1:100 */
(PID.TID 0000.0001)     ;
(PID.TID 0000.0001) dxC =  /* dxC(:,1,:,1) ( units: m ) */
(PID.TID 0000.0001)    50 @  5.820391490558872E+03              /* I =  1: 50 */
(PID.TID 0000.0001)     ;
(PID.TID 0000.0001) dxC =  /* dxC(1,:,1,:) ( units: m ) */
(PID.TID 0000.0001)                 5.820391490558872E+03,      /* J =  1 */
(PID.TID 0000.0001)                 5.877701765291692E+03,      /* J =  2 */
(PID.TID 0000.0001)                 5.934994135525598E+03,      /* J =  3 */
(PID.TID 0000.0001)      . . .
(PID.TID 0000.0001)                 7.076813247621209E+03,      /* J = 23 */
(PID.TID 0000.0001)                 7.133689397375063E+03,      /* J = 24 */
(PID.TID 0000.0001)                 7.190543816673855E+03,      /* J = 25 */
(PID.TID 0000.0001)                 7.247376332329164E+03,      /* J = 26 */
(PID.TID 0000.0001)                 7.304186771219292E+03,      /* J = 27 */
(PID.TID 0000.0001)                 7.360974960289787E+03,      /* J = 28 */
(PID.TID 0000.0001)      . . .
(PID.TID 0000.0001)                 8.491800393599013E+03,      /* J = 48 */
(PID.TID 0000.0001)                 8.548081485571185E+03,      /* J = 49 */
(PID.TID 0000.0001)                 8.604336538604706E+03,      /* J = 50 */
(PID.TID 0000.0001)                 8.660565381336924E+03,      /* J = 51 */
(PID.TID 0000.0001)                 8.716767842485036E+03,      /* J = 52 */
(PID.TID 0000.0001)                 8.772943750846600E+03,      /* J = 53 */
(PID.TID 0000.0001)      . . .
(PID.TID 0000.0001)                 9.890622914885218E+03,      /* J = 73 */
(PID.TID 0000.0001)                 9.946201814818334E+03,      /* J = 74 */
(PID.TID 0000.0001)                 1.000175041689580E+04,      /* J = 75 */
(PID.TID 0000.0001)                 1.005726855190695E+04,      /* J = 76 */
(PID.TID 0000.0001)                 1.011275605073392E+04,      /* J = 77 */
(PID.TID 0000.0001)                 1.016821274435215E+04,      /* J = 78 */
(PID.TID 0000.0001)      . . .
(PID.TID 0000.0001)                 1.127061807330668E+04,      /* J = 98 */
(PID.TID 0000.0001)                 1.132538898360582E+04,      /* J = 99 */
(PID.TID 0000.0001)                 1.138012539480601E+04       /* J =100 */
(PID.TID 0000.0001)     ;
(PID.TID 0000.0001) dyC =  /* dyC(:,1,:,1) ( units: m ) */
(PID.TID 0000.0001)    50 @  1.111774733520388E+04              /* I =  1: 50 */
(PID.TID 0000.0001)     ;
(PID.TID 0000.0001) dyC =  /* dyC(1,:,1,:) ( units: m ) */
(PID.TID 0000.0001)   100 @  1.111774733520388E+04              /* J =  1:100 */
(PID.TID 0000.0001)     ;
(PID.TID 0000.0001) dxV =  /* dxV(:,1,:,1) ( units: m ) */
(PID.TID 0000.0001)    50 @  5.791729693558576E+03              /* I =  1: 50 */
(PID.TID 0000.0001)     ;
(PID.TID 0000.0001) dxV =  /* dxV(1,:,1,:) ( units: m ) */
(PID.TID 0000.0001)                 5.791729693558576E+03,      /* J =  1 */
(PID.TID 0000.0001)                 5.849048855077854E+03,      /* J =  2 */
(PID.TID 0000.0001)                 5.906350199379949E+03,      /* J =  3 */
(PID.TID 0000.0001)      . . .
(PID.TID 0000.0001)                 7.048367077963129E+03,      /* J = 23 */
(PID.TID 0000.0001)                 7.105254027978149E+03,      /* J = 24 */
(PID.TID 0000.0001)                 7.162119334157175E+03,      /* J = 25 */
(PID.TID 0000.0001)                 7.218962823278620E+03,      /* J = 26 */
(PID.TID 0000.0001)                 7.275784322187360E+03,      /* J = 27 */
(PID.TID 0000.0001)                 7.332583657795253E+03,      /* J = 28 */
(PID.TID 0000.0001)      . . .
(PID.TID 0000.0001)                 8.463650136583461E+03,      /* J = 48 */
(PID.TID 0000.0001)                 8.519944183739159E+03,      /* J = 49 */
(PID.TID 0000.0001)                 8.576212277667308E+03,      /* J = 50 */
(PID.TID 0000.0001)                 8.632454246965530E+03,      /* J = 51 */
(PID.TID 0000.0001)                 8.688669920311038E+03,      /* J = 52 */
(PID.TID 0000.0001)                 8.744859126461139E+03,      /* J = 53 */
(PID.TID 0000.0001)      . . .
(PID.TID 0000.0001)                 9.862822156126382E+03,      /* J = 73 */
(PID.TID 0000.0001)                 9.918416141504455E+03,      /* J = 74 */
(PID.TID 0000.0001)                 9.973979913666863E+03,      /* J = 75 */
(PID.TID 0000.0001)                 1.002951330335672E+04,      /* J = 76 */
(PID.TID 0000.0001)                 1.008501614140969E+04,      /* J = 77 */
(PID.TID 0000.0001)                 1.014048825875450E+04,      /* J = 78 */
(PID.TID 0000.0001)      . . .
(PID.TID 0000.0001)                 1.124321973312895E+04,      /* J = 98 */
(PID.TID 0000.0001)                 1.129800783041847E+04,      /* J = 99 */
(PID.TID 0000.0001)                 1.135276151201679E+04       /* J =100 */
(PID.TID 0000.0001)     ;
(PID.TID 0000.0001) dyU =  /* dyU(:,1,:,1) ( units: m ) */
(PID.TID 0000.0001)    50 @  1.111774733520388E+04              /* I =  1: 50 */
(PID.TID 0000.0001)     ;
(PID.TID 0000.0001) dyU =  /* dyU(1,:,1,:) ( units: m ) */
(PID.TID 0000.0001)   100 @  1.111774733520388E+04              /* J =  1:100 */
(PID.TID 0000.0001)     ;
(PID.TID 0000.0001) rA  =  /* rA (:,1,:,1) ( units: m^2 ) */
(PID.TID 0000.0001)    50 @  6.470963377080289E+07              /* I =  1: 50 */
(PID.TID 0000.0001)     ;
(PID.TID 0000.0001) rA  =  /* rA (1,:,1,:) ( units: m^2 ) */
(PID.TID 0000.0001)                 6.470963377080289E+07,      /* J =  1 */
(PID.TID 0000.0001)                 6.534679484410104E+07,      /* J =  2 */
(PID.TID 0000.0001)                 6.598375685977945E+07,      /* J =  3 */
(PID.TID 0000.0001)      . . .
(PID.TID 0000.0001)                 7.867821163932665E+07,      /* J = 23 */
(PID.TID 0000.0001)                 7.931054622142966E+07,      /* J = 24 */
(PID.TID 0000.0001)                 7.994263920984067E+07,      /* J = 25 */
(PID.TID 0000.0001)                 8.057448867913349E+07,      /* J = 26 */
(PID.TID 0000.0001)                 8.120609270456599E+07,      /* J = 27 */
(PID.TID 0000.0001)                 8.183744936212724E+07,      /* J = 28 */
(PID.TID 0000.0001)      . . .
(PID.TID 0000.0001)                 9.440967921416211E+07,      /* J = 48 */
(PID.TID 0000.0001)                 9.503539809503193E+07,      /* J = 49 */
(PID.TID 0000.0001)                 9.566082748163140E+07,      /* J = 50 */
(PID.TID 0000.0001)                 9.628596546870193E+07,      /* J = 51 */
(PID.TID 0000.0001)                 9.691081015209354E+07,      /* J = 52 */
(PID.TID 0000.0001)                 9.753535962826957E+07,      /* J = 53 */
(PID.TID 0000.0001)      . . .
(PID.TID 0000.0001)                 1.099614325987181E+08,      /* J = 73 */
(PID.TID 0000.0001)                 1.105793446869293E+08,      /* J = 74 */
(PID.TID 0000.0001)                 1.111969199312560E+08,      /* J = 75 */
(PID.TID 0000.0001)                 1.118141564504991E+08,      /* J = 76 */
(PID.TID 0000.0001)                 1.124310523644033E+08,      /* J = 77 */
(PID.TID 0000.0001)                 1.130476057938687E+08,      /* J = 78 */
(PID.TID 0000.0001)      . . .
(PID.TID 0000.0001)                 1.253038681465364E+08,      /* J = 98 */
(PID.TID 0000.0001)                 1.259127972112936E+08,      /* J = 99 */
(PID.TID 0000.0001)                 1.265213427237870E+08       /* J =100 */
(PID.TID 0000.0001)     ;
(PID.TID 0000.0001) rAw =  /* rAw(:,1,:,1) ( units: m^2 ) */
(PID.TID 0000.0001)    50 @  6.470963377080289E+07              /* I =  1: 50 */
(PID.TID 0000.0001)     ;
(PID.TID 0000.0001) rAw =  /* rAw(1,:,1,:) ( units: m^2 ) */
(PID.TID 0000.0001)                 6.470963377080289E+07,      /* J =  1 */
(PID.TID 0000.0001)                 6.534679484410104E+07,      /* J =  2 */
(PID.TID 0000.0001)                 6.598375685977945E+07,      /* J =  3 */
(PID.TID 0000.0001)      . . .
(PID.TID 0000.0001)                 7.867821163932665E+07,      /* J = 23 */
(PID.TID 0000.0001)                 7.931054622142966E+07,      /* J = 24 */
(PID.TID 0000.0001)                 7.994263920984067E+07,      /* J = 25 */
(PID.TID 0000.0001)                 8.057448867913349E+07,      /* J = 26 */
(PID.TID 0000.0001)                 8.120609270456599E+07,      /* J = 27 */
(PID.TID 0000.0001)                 8.183744936212724E+07,      /* J = 28 */
(PID.TID 0000.0001)      . . .
(PID.TID 0000.0001)                 9.440967921416211E+07,      /* J = 48 */
(PID.TID 0000.0001)                 9.503539809503193E+07,      /* J = 49 */
(PID.TID 0000.0001)                 9.566082748163140E+07,      /* J = 50 */
(PID.TID 0000.0001)                 9.628596546870193E+07,      /* J = 51 */
(PID.TID 0000.0001)                 9.691081015209354E+07,      /* J = 52 */
(PID.TID 0000.0001)                 9.753535962826957E+07,      /* J = 53 */
(PID.TID 0000.0001)      . . .
(PID.TID 0000.0001)                 1.099614325987181E+08,      /* J = 73 */
(PID.TID 0000.0001)                 1.105793446869293E+08,      /* J = 74 */
(PID.TID 0000.0001)                 1.111969199312560E+08,      /* J = 75 */
(PID.TID 0000.0001)                 1.118141564504991E+08,      /* J = 76 */
(PID.TID 0000.0001)                 1.124310523644033E+08,      /* J = 77 */
(PID.TID 0000.0001)                 1.130476057938687E+08,      /* J = 78 */
(PID.TID 0000.0001)      . . .
(PID.TID 0000.0001)                 1.253038681465364E+08,      /* J = 98 */
(PID.TID 0000.0001)                 1.259127972112936E+08,      /* J = 99 */
(PID.TID 0000.0001)                 1.265213427237870E+08       /* J =100 */
(PID.TID 0000.0001)     ;
(PID.TID 0000.0001) rAs =  /* rAs(:,1,:,1) ( units: m^2 ) */
(PID.TID 0000.0001)    50 @  6.439097919401864E+07              /* I =  1: 50 */
(PID.TID 0000.0001)     ;
(PID.TID 0000.0001) rAs =  /* rAs(1,:,1,:) ( units: m^2 ) */
(PID.TID 0000.0001)                 6.439097919401864E+07,      /* J =  1 */
(PID.TID 0000.0001)                 6.502823906837179E+07,      /* J =  2 */
(PID.TID 0000.0001)                 6.566530085543716E+07,      /* J =  3 */
(PID.TID 0000.0001)      . . .
(PID.TID 0000.0001)                 7.836195435256335E+07,      /* J = 23 */
(PID.TID 0000.0001)                 7.899440900921808E+07,      /* J = 24 */
(PID.TID 0000.0001)                 7.962662303520055E+07,      /* J = 25 */
(PID.TID 0000.0001)                 8.025859450470714E+07,      /* J = 26 */
(PID.TID 0000.0001)                 8.089032149259475E+07,      /* J = 27 */
(PID.TID 0000.0001)                 8.152180207452223E+07,      /* J = 28 */
(PID.TID 0000.0001)      . . .
(PID.TID 0000.0001)                 9.409671180895932E+07,      /* J = 48 */
(PID.TID 0000.0001)                 9.472257472228888E+07,      /* J = 49 */
(PID.TID 0000.0001)                 9.534814909420149E+07,      /* J = 50 */
(PID.TID 0000.0001)                 9.597343301913190E+07,      /* J = 51 */
(PID.TID 0000.0001)                 9.659842459236403E+07,      /* J = 52 */
(PID.TID 0000.0001)                 9.722312190998378E+07,      /* J = 53 */
(PID.TID 0000.0001)      . . .
(PID.TID 0000.0001)                 1.096523508263446E+08,      /* J = 73 */
(PID.TID 0000.0001)                 1.102704306306916E+08,      /* J = 74 */
(PID.TID 0000.0001)                 1.108881745321664E+08,      /* J = 75 */
(PID.TID 0000.0001)                 1.115055806490511E+08,      /* J = 76 */
(PID.TID 0000.0001)                 1.121226471005947E+08,      /* J = 77 */
(PID.TID 0000.0001)                 1.127393720071080E+08,      /* J = 78 */
(PID.TID 0000.0001)      . . .
(PID.TID 0000.0001)                 1.249992603617116E+08,      /* J = 98 */
(PID.TID 0000.0001)                 1.256083805070198E+08,      /* J = 99 */
(PID.TID 0000.0001)                 1.262171180274426E+08       /* J =100 */
(PID.TID 0000.0001)     ;
(PID.TID 0000.0001) globalArea = /* Integrated horizontal Area (m^2) */
(PID.TID 0000.0001)                 4.665024516720134E+11
(PID.TID 0000.0001)     ;
(PID.TID 0000.0001) // =======================================================
(PID.TID 0000.0001) // End of Model config. summary
(PID.TID 0000.0001) // =======================================================
(PID.TID 0000.0001) 
(PID.TID 0000.0001) == Packages configuration : Check & print summary ==
(PID.TID 0000.0001) 
(PID.TID 0000.0001) SHELFICE_CHECK: #define ALLOW_SHELFICE
(PID.TID 0000.0001) CTRL_CHECK: ctrl package
(PID.TID 0000.0001) COST_CHECK: cost package
(PID.TID 0000.0001) GRDCHK_CHECK: grdchk package
(PID.TID 0000.0001) GAD_CHECK: #define ALLOW_GENERIC_ADVDIFF
(PID.TID 0000.0001) // =======================================================
(PID.TID 0000.0001) // CONFIG_CHECK : Normal End
(PID.TID 0000.0001) // =======================================================
(PID.TID 0000.0001) 
(PID.TID 0000.0001) INI_CG2D: CG2D normalisation factor =  1.0404366262810520E-03
(PID.TID 0000.0001) 
(PID.TID 0000.0001)  nRecords = 243 ; filePrec =  64 ; fileIter =      8640
(PID.TID 0000.0001)     nDims =   2 , dims:
(PID.TID 0000.0001)    1:  50   1  50
(PID.TID 0000.0001)    2: 100   1 100
(PID.TID 0000.0001)     nFlds =  11 , nFl3D =   8 , fields:
(PID.TID 0000.0001)  >Uvel    < >Vvel    < >Theta   < >Salt    < >GuNm1   < >GvNm1   < >GtNm1   < >GsNm1   < >EtaN    < >dEtaHdt < >EtaH    <
(PID.TID 0000.0001)   nTimRec =   0 , timeList:
(PID.TID 0000.0001) READ_MFLDS_3D_RL: read field: "Uvel    ", #   1 in fldList, rec=   1
(PID.TID 0000.0001) READ_MFLDS_3D_RL: read field: "Vvel    ", #   2 in fldList, rec=   2
(PID.TID 0000.0001) READ_MFLDS_3D_RL: read field: "Theta   ", #   3 in fldList, rec=   3
(PID.TID 0000.0001) READ_MFLDS_3D_RL: read field: "Salt    ", #   4 in fldList, rec=   4
(PID.TID 0000.0001) READ_MFLDS_3D_RL: read field: "GuNm1   ", #   5 in fldList, rec=   5
(PID.TID 0000.0001) READ_MFLDS_3D_RL: read field: "GvNm1   ", #   6 in fldList, rec=   6
(PID.TID 0000.0001) READ_MFLDS_3D_RL: read field: "GtNm1   ", #   7 in fldList, rec=   7
(PID.TID 0000.0001) READ_MFLDS_3D_RL: read field: "GsNm1   ", #   8 in fldList, rec=   8
(PID.TID 0000.0001) READ_MFLDS_3D_RL: read field: "EtaN    ", #   9 in fldList, rec= 241
(PID.TID 0000.0001) READ_MFLDS_3D_RL: read field: "dEtaHdt ", #  10 in fldList, rec= 242
(PID.TID 0000.0001) READ_MFLDS_3D_RL: read field: "EtaH    ", #  11 in fldList, rec= 243
(PID.TID 0000.0001) READ_MFLDS_CHECK: - normal end ; reset MFLDS file-name: pickup.0000008640
(PID.TID 0000.0001) // =======================================================
(PID.TID 0000.0001) // Begin MONITOR dynamic field statistics
(PID.TID 0000.0001) // =======================================================
(PID.TID 0000.0001) %MON time_tsnumber                =                  8640
(PID.TID 0000.0001) %MON time_secondsf                =   1.5552000000000E+07
(PID.TID 0000.0001) %MON dynstat_eta_max              =   1.1547478263152E-02
(PID.TID 0000.0001) %MON dynstat_eta_min              =  -2.6792518859505E-03
(PID.TID 0000.0001) %MON dynstat_eta_mean             =  -2.8068109805926E-16
(PID.TID 0000.0001) %MON dynstat_eta_sd               =   1.0200397966504E-03
(PID.TID 0000.0001) %MON dynstat_eta_del2             =   2.5371559200346E-05
(PID.TID 0000.0001) %MON dynstat_uvel_max             =   7.0225293882088E-03
(PID.TID 0000.0001) %MON dynstat_uvel_min             =  -1.1431056075099E-02
(PID.TID 0000.0001) %MON dynstat_uvel_mean            =   2.8733073796801E-05
(PID.TID 0000.0001) %MON dynstat_uvel_sd              =   1.1583626065941E-03
(PID.TID 0000.0001) %MON dynstat_uvel_del2            =   1.2791047697505E-06
(PID.TID 0000.0001) %MON dynstat_vvel_max             =   3.9338955473099E-02
(PID.TID 0000.0001) %MON dynstat_vvel_min             =  -1.3256941080851E-02
(PID.TID 0000.0001) %MON dynstat_vvel_mean            =  -9.2900221670288E-08
(PID.TID 0000.0001) %MON dynstat_vvel_sd              =   2.7751498348025E-03
(PID.TID 0000.0001) %MON dynstat_vvel_del2            =   4.9212700380925E-06
(PID.TID 0000.0001) %MON dynstat_wvel_max             =   4.2878246713501E-05
(PID.TID 0000.0001) %MON dynstat_wvel_min             =  -1.2010769874736E-04
(PID.TID 0000.0001) %MON dynstat_wvel_mean            =  -2.5100714936910E-10
(PID.TID 0000.0001) %MON dynstat_wvel_sd              =   4.2032395307098E-06
(PID.TID 0000.0001) %MON dynstat_wvel_del2            =   1.8639032682411E-08
(PID.TID 0000.0001) %MON dynstat_theta_max            =  -1.8364995507330E+00
(PID.TID 0000.0001) %MON dynstat_theta_min            =  -2.0000000000000E+00
(PID.TID 0000.0001) %MON dynstat_theta_mean           =  -1.9142907392764E+00
(PID.TID 0000.0001) %MON dynstat_theta_sd             =   3.1084271484804E-02
(PID.TID 0000.0001) %MON dynstat_theta_del2           =   6.3421694822618E-06
(PID.TID 0000.0001) %MON dynstat_salt_max             =   3.4425235078521E+01
(PID.TID 0000.0001) %MON dynstat_salt_min             =   3.4119681589956E+01
(PID.TID 0000.0001) %MON dynstat_salt_mean            =   3.4391243316100E+01
(PID.TID 0000.0001) %MON dynstat_salt_sd              =   2.3889924168882E-02
(PID.TID 0000.0001) %MON dynstat_salt_del2            =   3.3297324617653E-06
(PID.TID 0000.0001) %MON advcfl_uvel_max              =   3.4012427019763E-03
(PID.TID 0000.0001) %MON advcfl_vvel_max              =   6.3691067728586E-03
(PID.TID 0000.0001) %MON advcfl_wvel_max              =   7.2064619248418E-03
(PID.TID 0000.0001) %MON advcfl_W_hf_max              =   7.2064619248418E-03
(PID.TID 0000.0001) %MON pe_b_mean                    =   8.1423589033297E-09
(PID.TID 0000.0001) %MON ke_max                       =   7.7392672876306E-04
(PID.TID 0000.0001) %MON ke_mean                      =   4.4630639338804E-06
(PID.TID 0000.0001) %MON ke_vol                       =   2.9239970672188E+14
(PID.TID 0000.0001) %MON vort_r_min                   =  -2.3549373278644E-06
(PID.TID 0000.0001) %MON vort_r_max                   =   4.2468259247500E-06
(PID.TID 0000.0001) %MON vort_a_mean                  =  -1.4007197040362E-04
(PID.TID 0000.0001) %MON vort_a_sd                    =   1.7881275272606E-06
(PID.TID 0000.0001) %MON vort_p_mean                  =  -1.5023213754754E-04
(PID.TID 0000.0001) %MON vort_p_sd                    =   7.5278517385247E-05
(PID.TID 0000.0001) %MON surfExpan_theta_mean         =  -7.3220876444008E-23
(PID.TID 0000.0001) %MON surfExpan_salt_mean          =  -2.1811250098595E-11
(PID.TID 0000.0001) // =======================================================
(PID.TID 0000.0001) // End MONITOR dynamic field statistics
(PID.TID 0000.0001) // =======================================================
(PID.TID 0000.0001) SOLVE_FOR_PRESSURE: putPmEinXvector =    F
 cg2d: Sum(rhs),rhsMax =   7.04913205714849E-13  5.97849185308842E-02
(PID.TID 0000.0001)      cg2d_init_res =   5.92341668371497E+00
(PID.TID 0000.0001)      cg2d_iters(min,last) =      -1     208
(PID.TID 0000.0001)      cg2d_last_res =   8.67822750425203E-14
(PID.TID 0000.0001) // =======================================================
(PID.TID 0000.0001) // Begin MONITOR dynamic field statistics
(PID.TID 0000.0001) // =======================================================
(PID.TID 0000.0001) %MON time_tsnumber                =                  8641
(PID.TID 0000.0001) %MON time_secondsf                =   1.5553800000000E+07
(PID.TID 0000.0001) %MON dynstat_eta_max              =   1.1279822076878E-02
(PID.TID 0000.0001) %MON dynstat_eta_min              =  -3.3100296601727E-03
(PID.TID 0000.0001) %MON dynstat_eta_mean             =  -2.8016104580808E-16
(PID.TID 0000.0001) %MON dynstat_eta_sd               =   9.7653310004330E-04
(PID.TID 0000.0001) %MON dynstat_eta_del2             =   8.2711522597811E-06
(PID.TID 0000.0001) %MON dynstat_uvel_max             =   6.9546523249097E-03
(PID.TID 0000.0001) %MON dynstat_uvel_min             =  -1.2109501410476E-02
(PID.TID 0000.0001) %MON dynstat_uvel_mean            =   2.5153606286375E-05
(PID.TID 0000.0001) %MON dynstat_uvel_sd              =   1.1686713374826E-03
(PID.TID 0000.0001) %MON dynstat_uvel_del2            =   1.6837018566885E-06
(PID.TID 0000.0001) %MON dynstat_vvel_max             =   3.9571300737874E-02
(PID.TID 0000.0001) %MON dynstat_vvel_min             =  -1.3257550590396E-02
(PID.TID 0000.0001) %MON dynstat_vvel_mean            =   4.6554257967241E-06
(PID.TID 0000.0001) %MON dynstat_vvel_sd              =   2.7773763704932E-03
(PID.TID 0000.0001) %MON dynstat_vvel_del2            =   4.9154608674546E-06
(PID.TID 0000.0001) %MON dynstat_wvel_max             =   4.6557104689884E-05
(PID.TID 0000.0001) %MON dynstat_wvel_min             =  -1.2002082352331E-04
(PID.TID 0000.0001) %MON dynstat_wvel_mean            =   3.8661793881418E-09
(PID.TID 0000.0001) %MON dynstat_wvel_sd              =   4.1001623701305E-06
(PID.TID 0000.0001) %MON dynstat_wvel_del2            =   1.8109298304316E-08
(PID.TID 0000.0001) %MON dynstat_theta_max            =  -1.8769133091232E+00
(PID.TID 0000.0001) %MON dynstat_theta_min            =  -2.0039541683447E+00
(PID.TID 0000.0001) %MON dynstat_theta_mean           =  -1.9143345921839E+00
(PID.TID 0000.0001) %MON dynstat_theta_sd             =   3.1203763049740E-02
(PID.TID 0000.0001) %MON dynstat_theta_del2           =   6.2899768354684E-06
(PID.TID 0000.0001) %MON dynstat_salt_max             =   3.4409203479254E+01
(PID.TID 0000.0001) %MON dynstat_salt_min             =   3.4118328032012E+01
(PID.TID 0000.0001) %MON dynstat_salt_mean            =   3.4391225881714E+01
(PID.TID 0000.0001) %MON dynstat_salt_sd              =   2.3968551148556E-02
(PID.TID 0000.0001) %MON dynstat_salt_del2            =   3.3659906525820E-06
(PID.TID 0000.0001) %MON advcfl_uvel_max              =   3.6031100736767E-03
(PID.TID 0000.0001) %MON advcfl_vvel_max              =   6.4067242383384E-03
(PID.TID 0000.0001) %MON advcfl_wvel_max              =   7.2012494113988E-03
(PID.TID 0000.0001) %MON advcfl_W_hf_max              =   7.2012494113988E-03
(PID.TID 0000.0001) %MON pe_b_mean                    =  -3.5738124103394E-07
(PID.TID 0000.0001) %MON ke_max                       =   7.7643519629904E-04
(PID.TID 0000.0001) %MON ke_mean                      =   4.4808385284165E-06
(PID.TID 0000.0001) %MON ke_vol                       =   2.9239970672188E+14
(PID.TID 0000.0001) %MON vort_r_min                   =  -2.3577016281591E-06
(PID.TID 0000.0001) %MON vort_r_max                   =   4.2945409735847E-06
(PID.TID 0000.0001) %MON vort_a_mean                  =  -1.4007161344053E-04
(PID.TID 0000.0001) %MON vort_a_sd                    =   1.7877722066271E-06
(PID.TID 0000.0001) %MON vort_p_mean                  =  -1.5023175469274E-04
(PID.TID 0000.0001) %MON vort_p_sd                    =   7.5268868191356E-05
(PID.TID 0000.0001) %MON surfExpan_theta_mean         =   2.3878156021211E-11
(PID.TID 0000.0001) %MON surfExpan_salt_mean          =   1.5797857034547E-09
(PID.TID 0000.0001) // =======================================================
(PID.TID 0000.0001) // End MONITOR dynamic field statistics
(PID.TID 0000.0001) // =======================================================
 cg2d: Sum(rhs),rhsMax =   7.17390177210758E-13  5.85454507336924E-02
(PID.TID 0000.0001)      cg2d_init_res =   8.60153194849811E-02
(PID.TID 0000.0001)      cg2d_iters(min,last) =      -1     199
(PID.TID 0000.0001)      cg2d_last_res =   8.09969970629063E-14
(PID.TID 0000.0001) // =======================================================
(PID.TID 0000.0001) // Begin MONITOR dynamic field statistics
(PID.TID 0000.0001) // =======================================================
(PID.TID 0000.0001) %MON time_tsnumber                =                  8642
(PID.TID 0000.0001) %MON time_secondsf                =   1.5555600000000E+07
(PID.TID 0000.0001) %MON dynstat_eta_max              =   1.1444481175606E-02
(PID.TID 0000.0001) %MON dynstat_eta_min              =  -3.5279257740962E-03
(PID.TID 0000.0001) %MON dynstat_eta_mean             =  -2.8003232832163E-16
(PID.TID 0000.0001) %MON dynstat_eta_sd               =   1.0075489901250E-03
(PID.TID 0000.0001) %MON dynstat_eta_del2             =   8.2969916930200E-06
(PID.TID 0000.0001) %MON dynstat_uvel_max             =   6.9392239239170E-03
(PID.TID 0000.0001) %MON dynstat_uvel_min             =  -1.2353285800547E-02
(PID.TID 0000.0001) %MON dynstat_uvel_mean            =   2.5626183660377E-05
(PID.TID 0000.0001) %MON dynstat_uvel_sd              =   1.1759263205920E-03
(PID.TID 0000.0001) %MON dynstat_uvel_del2            =   1.8727489678923E-06
(PID.TID 0000.0001) %MON dynstat_vvel_max             =   3.9897309954729E-02
(PID.TID 0000.0001) %MON dynstat_vvel_min             =  -1.3257671575219E-02
(PID.TID 0000.0001) %MON dynstat_vvel_mean            =   8.2134042317452E-06
(PID.TID 0000.0001) %MON dynstat_vvel_sd              =   2.7838058713572E-03
(PID.TID 0000.0001) %MON dynstat_vvel_del2            =   4.9142720870470E-06
(PID.TID 0000.0001) %MON dynstat_wvel_max             =   4.6590734476382E-05
(PID.TID 0000.0001) %MON dynstat_wvel_min             =  -1.2002519767134E-04
(PID.TID 0000.0001) %MON dynstat_wvel_mean            =   7.1411041708692E-09
(PID.TID 0000.0001) %MON dynstat_wvel_sd              =   4.0323643798643E-06
(PID.TID 0000.0001) %MON dynstat_wvel_del2            =   1.7561640978814E-08
(PID.TID 0000.0001) %MON dynstat_theta_max            =  -1.8819015154270E+00
(PID.TID 0000.0001) %MON dynstat_theta_min            =  -2.0064119520666E+00
(PID.TID 0000.0001) %MON dynstat_theta_mean           =  -1.9143619919948E+00
(PID.TID 0000.0001) %MON dynstat_theta_sd             =   3.1279518105389E-02
(PID.TID 0000.0001) %MON dynstat_theta_del2           =   6.2686449614987E-06
(PID.TID 0000.0001) %MON dynstat_salt_max             =   3.4407234510071E+01
(PID.TID 0000.0001) %MON dynstat_salt_min             =   3.4117526411196E+01
(PID.TID 0000.0001) %MON dynstat_salt_mean            =   3.4391214992896E+01
(PID.TID 0000.0001) %MON dynstat_salt_sd              =   2.4017396846090E-02
(PID.TID 0000.0001) %MON dynstat_salt_del2            =   3.3900007990884E-06
(PID.TID 0000.0001) %MON advcfl_uvel_max              =   3.6756466680334E-03
(PID.TID 0000.0001) %MON advcfl_vvel_max              =   6.4595062069015E-03
(PID.TID 0000.0001) %MON advcfl_wvel_max              =   7.2015118602804E-03
(PID.TID 0000.0001) %MON advcfl_W_hf_max              =   7.2015118602804E-03
(PID.TID 0000.0001) %MON pe_b_mean                    =  -3.3217608405415E-07
(PID.TID 0000.0001) %MON ke_max                       =   7.8679289816979E-04
(PID.TID 0000.0001) %MON ke_mean                      =   4.5068721181653E-06
(PID.TID 0000.0001) %MON ke_vol                       =   2.9239970672188E+14
(PID.TID 0000.0001) %MON vort_r_min                   =  -2.3607307317159E-06
(PID.TID 0000.0001) %MON vort_r_max                   =   4.3430908113619E-06
(PID.TID 0000.0001) %MON vort_a_mean                  =  -1.4007161342161E-04
(PID.TID 0000.0001) %MON vort_a_sd                    =   1.7878698244543E-06
(PID.TID 0000.0001) %MON vort_p_mean                  =  -1.5023175144689E-04
(PID.TID 0000.0001) %MON vort_p_sd                    =   7.5270535512011E-05
(PID.TID 0000.0001) %MON surfExpan_theta_mean         =   5.5854351421482E-11
(PID.TID 0000.0001) %MON surfExpan_salt_mean          =   1.6226557732873E-09
(PID.TID 0000.0001) // =======================================================
(PID.TID 0000.0001) // End MONITOR dynamic field statistics
(PID.TID 0000.0001) // =======================================================
 cg2d: Sum(rhs),rhsMax =   7.16628470974479E-13  5.84668669787601E-02
(PID.TID 0000.0001)      cg2d_init_res =   4.19824123846784E-02
(PID.TID 0000.0001)      cg2d_iters(min,last) =      -1     199
(PID.TID 0000.0001)      cg2d_last_res =   8.24920995786004E-14
(PID.TID 0000.0001) // =======================================================
(PID.TID 0000.0001) // Begin MONITOR dynamic field statistics
(PID.TID 0000.0001) // =======================================================
(PID.TID 0000.0001) %MON time_tsnumber                =                  8643
(PID.TID 0000.0001) %MON time_secondsf                =   1.5557400000000E+07
(PID.TID 0000.0001) %MON dynstat_eta_max              =   1.1518189074635E-02
(PID.TID 0000.0001) %MON dynstat_eta_min              =  -3.6574847955033E-03
(PID.TID 0000.0001) %MON dynstat_eta_mean             =  -2.8045817574318E-16
(PID.TID 0000.0001) %MON dynstat_eta_sd               =   1.0185215277039E-03
(PID.TID 0000.0001) %MON dynstat_eta_del2             =   8.2844361599101E-06
(PID.TID 0000.0001) %MON dynstat_uvel_max             =   6.9300708080322E-03
(PID.TID 0000.0001) %MON dynstat_uvel_min             =  -1.2572099234232E-02
(PID.TID 0000.0001) %MON dynstat_uvel_mean            =   2.7298818593443E-05
(PID.TID 0000.0001) %MON dynstat_uvel_sd              =   1.1854592755713E-03
(PID.TID 0000.0001) %MON dynstat_uvel_del2            =   2.0073637136270E-06
(PID.TID 0000.0001) %MON dynstat_vvel_max             =   4.0246571263147E-02
(PID.TID 0000.0001) %MON dynstat_vvel_min             =  -1.3256716704216E-02
(PID.TID 0000.0001) %MON dynstat_vvel_mean            =   1.1080144357792E-05
(PID.TID 0000.0001) %MON dynstat_vvel_sd              =   2.7902331692381E-03
(PID.TID 0000.0001) %MON dynstat_vvel_del2            =   4.9136476837956E-06
(PID.TID 0000.0001) %MON dynstat_wvel_max             =   4.6998905651669E-05
(PID.TID 0000.0001) %MON dynstat_wvel_min             =  -1.2010413123354E-04
(PID.TID 0000.0001) %MON dynstat_wvel_mean            =   7.8767260860242E-09
(PID.TID 0000.0001) %MON dynstat_wvel_sd              =   4.0041129892970E-06
(PID.TID 0000.0001) %MON dynstat_wvel_del2            =   1.7348846053724E-08
(PID.TID 0000.0001) %MON dynstat_theta_max            =  -1.8848514518885E+00
(PID.TID 0000.0001) %MON dynstat_theta_min            =  -2.0088620611106E+00
(PID.TID 0000.0001) %MON dynstat_theta_mean           =  -1.9143893053296E+00
(PID.TID 0000.0001) %MON dynstat_theta_sd             =   3.1355726794852E-02
(PID.TID 0000.0001) %MON dynstat_theta_del2           =   6.2541431827879E-06
(PID.TID 0000.0001) %MON dynstat_salt_max             =   3.4406075197710E+01
(PID.TID 0000.0001) %MON dynstat_salt_min             =   3.4116726245179E+01
(PID.TID 0000.0001) %MON dynstat_salt_mean            =   3.4391204138418E+01
(PID.TID 0000.0001) %MON dynstat_salt_sd              =   2.4066164798393E-02
(PID.TID 0000.0001) %MON dynstat_salt_del2            =   3.4152352344432E-06
(PID.TID 0000.0001) %MON advcfl_uvel_max              =   3.7407533029342E-03
(PID.TID 0000.0001) %MON advcfl_vvel_max              =   6.5160527658579E-03
(PID.TID 0000.0001) %MON advcfl_wvel_max              =   7.2062478740124E-03
(PID.TID 0000.0001) %MON advcfl_W_hf_max              =   7.2062478740124E-03
(PID.TID 0000.0001) %MON pe_b_mean                    =  -2.8825490810951E-07
(PID.TID 0000.0001) %MON ke_max                       =   7.9918458366268E-04
(PID.TID 0000.0001) %MON ke_mean                      =   4.5356709707350E-06
(PID.TID 0000.0001) %MON ke_vol                       =   2.9239970672188E+14
(PID.TID 0000.0001) %MON vort_r_min                   =  -2.3686646581947E-06
(PID.TID 0000.0001) %MON vort_r_max                   =   4.3834872543215E-06
(PID.TID 0000.0001) %MON vort_a_mean                  =  -1.4007161343274E-04
(PID.TID 0000.0001) %MON vort_a_sd                    =   1.7879399831647E-06
(PID.TID 0000.0001) %MON vort_p_mean                  =  -1.5023175150252E-04
(PID.TID 0000.0001) %MON vort_p_sd                    =   7.5270092762663E-05
(PID.TID 0000.0001) %MON surfExpan_theta_mean         =   8.3651366056660E-11
(PID.TID 0000.0001) %MON surfExpan_salt_mean          =   1.6685378509053E-09
(PID.TID 0000.0001) // =======================================================
(PID.TID 0000.0001) // End MONITOR dynamic field statistics
(PID.TID 0000.0001) // =======================================================
 cg2d: Sum(rhs),rhsMax =   7.16416644975029E-13  5.84481243740208E-02
(PID.TID 0000.0001)      cg2d_init_res =   3.95589476649783E-02
(PID.TID 0000.0001)      cg2d_iters(min,last) =      -1     198
(PID.TID 0000.0001)      cg2d_last_res =   8.35483713572919E-14
(PID.TID 0000.0001) // =======================================================
(PID.TID 0000.0001) // Begin MONITOR dynamic field statistics
(PID.TID 0000.0001) // =======================================================
(PID.TID 0000.0001) %MON time_tsnumber                =                  8644
(PID.TID 0000.0001) %MON time_secondsf                =   1.5559200000000E+07
(PID.TID 0000.0001) %MON dynstat_eta_max              =   1.1489275700578E-02
(PID.TID 0000.0001) %MON dynstat_eta_min              =  -3.6778268226000E-03
(PID.TID 0000.0001) %MON dynstat_eta_mean             =  -2.8003040679266E-16
(PID.TID 0000.0001) %MON dynstat_eta_sd               =   1.0153827291160E-03
(PID.TID 0000.0001) %MON dynstat_eta_del2             =   8.2850365293146E-06
(PID.TID 0000.0001) %MON dynstat_uvel_max             =   6.9284971651604E-03
(PID.TID 0000.0001) %MON dynstat_uvel_min             =  -1.2766096912683E-02
(PID.TID 0000.0001) %MON dynstat_uvel_mean            =   2.8821499804805E-05
(PID.TID 0000.0001) %MON dynstat_uvel_sd              =   1.1973530238706E-03
(PID.TID 0000.0001) %MON dynstat_uvel_del2            =   2.0706145209298E-06
(PID.TID 0000.0001) %MON dynstat_vvel_max             =   4.0590448704328E-02
(PID.TID 0000.0001) %MON dynstat_vvel_min             =  -1.3266736183044E-02
(PID.TID 0000.0001) %MON dynstat_vvel_mean            =   1.3006812007613E-05
(PID.TID 0000.0001) %MON dynstat_vvel_sd              =   2.7961329714371E-03
(PID.TID 0000.0001) %MON dynstat_vvel_del2            =   4.9137760906309E-06
(PID.TID 0000.0001) %MON dynstat_wvel_max             =   4.7439253252662E-05
(PID.TID 0000.0001) %MON dynstat_wvel_min             =  -1.2025050924115E-04
(PID.TID 0000.0001) %MON dynstat_wvel_mean            =   7.3926611811212E-09
(PID.TID 0000.0001) %MON dynstat_wvel_sd              =   4.0054247411965E-06
(PID.TID 0000.0001) %MON dynstat_wvel_del2            =   1.7334513811450E-08
(PID.TID 0000.0001) %MON dynstat_theta_max            =  -1.8867165931659E+00
(PID.TID 0000.0001) %MON dynstat_theta_min            =  -2.0113002748472E+00
(PID.TID 0000.0001) %MON dynstat_theta_mean           =  -1.9144164821866E+00
(PID.TID 0000.0001) %MON dynstat_theta_sd             =   3.1432220823516E-02
(PID.TID 0000.0001) %MON dynstat_theta_del2           =   6.2460841808119E-06
(PID.TID 0000.0001) %MON dynstat_salt_max             =   3.4405346997151E+01
(PID.TID 0000.0001) %MON dynstat_salt_min             =   3.4115931937081E+01
(PID.TID 0000.0001) %MON dynstat_salt_mean            =   3.4391193339076E+01
(PID.TID 0000.0001) %MON dynstat_salt_sd              =   2.4114737704406E-02
(PID.TID 0000.0001) %MON dynstat_salt_del2            =   3.4419459760735E-06
(PID.TID 0000.0001) %MON advcfl_uvel_max              =   3.7984761575594E-03
(PID.TID 0000.0001) %MON advcfl_vvel_max              =   6.5717276589331E-03
(PID.TID 0000.0001) %MON advcfl_wvel_max              =   7.2150305544689E-03
(PID.TID 0000.0001) %MON advcfl_W_hf_max              =   7.2150305544689E-03
(PID.TID 0000.0001) %MON pe_b_mean                    =  -2.3639270335866E-07
(PID.TID 0000.0001) %MON ke_max                       =   8.1243126843484E-04
(PID.TID 0000.0001) %MON ke_mean                      =   4.5659023109802E-06
(PID.TID 0000.0001) %MON ke_vol                       =   2.9239970672188E+14
(PID.TID 0000.0001) %MON vort_r_min                   =  -2.3718982258184E-06
(PID.TID 0000.0001) %MON vort_r_max                   =   4.4163390657626E-06
(PID.TID 0000.0001) %MON vort_a_mean                  =  -1.4007161358433E-04
(PID.TID 0000.0001) %MON vort_a_sd                    =   1.7879756908383E-06
(PID.TID 0000.0001) %MON vort_p_mean                  =  -1.5023175165038E-04
(PID.TID 0000.0001) %MON vort_p_sd                    =   7.5269794755296E-05
(PID.TID 0000.0001) %MON surfExpan_theta_mean         =   9.8993923970837E-11
(PID.TID 0000.0001) %MON surfExpan_salt_mean          =   1.5136763913389E-09
(PID.TID 0000.0001) // =======================================================
(PID.TID 0000.0001) // End MONITOR dynamic field statistics
(PID.TID 0000.0001) // =======================================================
 cg2d: Sum(rhs),rhsMax =   7.19141570295137E-13  5.83931392123464E-02
(PID.TID 0000.0001)      cg2d_init_res =   3.92949821608835E-02
(PID.TID 0000.0001)      cg2d_iters(min,last) =      -1     196
(PID.TID 0000.0001)      cg2d_last_res =   8.79466355273153E-14
(PID.TID 0000.0001) // =======================================================
(PID.TID 0000.0001) // Begin MONITOR dynamic field statistics
(PID.TID 0000.0001) // =======================================================
(PID.TID 0000.0001) %MON time_tsnumber                =                  8645
(PID.TID 0000.0001) %MON time_secondsf                =   1.5561000000000E+07
(PID.TID 0000.0001) %MON dynstat_eta_max              =   1.1391093255634E-02
(PID.TID 0000.0001) %MON dynstat_eta_min              =  -3.6366455546389E-03
(PID.TID 0000.0001) %MON dynstat_eta_mean             =  -2.7972583197257E-16
(PID.TID 0000.0001) %MON dynstat_eta_sd               =   1.0051872604897E-03
(PID.TID 0000.0001) %MON dynstat_eta_del2             =   8.2868774428642E-06
(PID.TID 0000.0001) %MON dynstat_uvel_max             =   6.9343575251280E-03
(PID.TID 0000.0001) %MON dynstat_uvel_min             =  -1.2934459018668E-02
(PID.TID 0000.0001) %MON dynstat_uvel_mean            =   2.9658793907283E-05
(PID.TID 0000.0001) %MON dynstat_uvel_sd              =   1.2108108475183E-03
(PID.TID 0000.0001) %MON dynstat_uvel_del2            =   2.0620928159717E-06
(PID.TID 0000.0001) %MON dynstat_vvel_max             =   4.0931900498915E-02
(PID.TID 0000.0001) %MON dynstat_vvel_min             =  -1.3283117808145E-02
(PID.TID 0000.0001) %MON dynstat_vvel_mean            =   1.3573696597964E-05
(PID.TID 0000.0001) %MON dynstat_vvel_sd              =   2.8012866074186E-03
(PID.TID 0000.0001) %MON dynstat_vvel_del2            =   4.9146959982668E-06
(PID.TID 0000.0001) %MON dynstat_wvel_max             =   4.7915491994546E-05
(PID.TID 0000.0001) %MON dynstat_wvel_min             =  -1.2044617978073E-04
(PID.TID 0000.0001) %MON dynstat_wvel_mean            =   6.1377431913715E-09
(PID.TID 0000.0001) %MON dynstat_wvel_sd              =   4.0313706294933E-06
(PID.TID 0000.0001) %MON dynstat_wvel_del2            =   1.7490659981655E-08
(PID.TID 0000.0001) %MON dynstat_theta_max            =  -1.8880270025976E+00
(PID.TID 0000.0001) %MON dynstat_theta_min            =  -2.0137316456904E+00
(PID.TID 0000.0001) %MON dynstat_theta_mean           =  -1.9144435233834E+00
(PID.TID 0000.0001) %MON dynstat_theta_sd             =   3.1508981501907E-02
(PID.TID 0000.0001) %MON dynstat_theta_del2           =   6.2442635897181E-06
(PID.TID 0000.0001) %MON dynstat_salt_max             =   3.4404839142861E+01
(PID.TID 0000.0001) %MON dynstat_salt_min             =   3.4115143447664E+01
(PID.TID 0000.0001) %MON dynstat_salt_mean            =   3.4391182594222E+01
(PID.TID 0000.0001) %MON dynstat_salt_sd              =   2.4163115075665E-02
(PID.TID 0000.0001) %MON dynstat_salt_del2            =   3.4701160997195E-06
(PID.TID 0000.0001) %MON advcfl_uvel_max              =   3.8485713001699E-03
(PID.TID 0000.0001) %MON advcfl_vvel_max              =   6.6270098318164E-03
(PID.TID 0000.0001) %MON advcfl_wvel_max              =   7.2267707868439E-03
(PID.TID 0000.0001) %MON advcfl_W_hf_max              =   7.2267707868439E-03
(PID.TID 0000.0001) %MON pe_b_mean                    =  -1.8675762913578E-07
(PID.TID 0000.0001) %MON ke_max                       =   8.2586076726043E-04
(PID.TID 0000.0001) %MON ke_mean                      =   4.5960612983405E-06
(PID.TID 0000.0001) %MON ke_vol                       =   2.9239970672188E+14
(PID.TID 0000.0001) %MON vort_r_min                   =  -2.3691783244656E-06
(PID.TID 0000.0001) %MON vort_r_max                   =   4.4410209184533E-06
(PID.TID 0000.0001) %MON vort_a_mean                  =  -1.4007161400070E-04
(PID.TID 0000.0001) %MON vort_a_sd                    =   1.7879790589392E-06
(PID.TID 0000.0001) %MON vort_p_mean                  =  -1.5023175201993E-04
(PID.TID 0000.0001) %MON vort_p_sd                    =   7.5269634057004E-05
(PID.TID 0000.0001) %MON surfExpan_theta_mean         =   9.8973772740908E-11
(PID.TID 0000.0001) %MON surfExpan_salt_mean          =   1.2265983449886E-09
(PID.TID 0000.0001) // =======================================================
(PID.TID 0000.0001) // End MONITOR dynamic field statistics
(PID.TID 0000.0001) // =======================================================
 cg2d: Sum(rhs),rhsMax =   7.17101223779264E-13  5.83957488429974E-02
(PID.TID 0000.0001)      cg2d_init_res =   3.85606721057842E-02
(PID.TID 0000.0001)      cg2d_iters(min,last) =      -1     195
(PID.TID 0000.0001)      cg2d_last_res =   8.06701695166215E-14
(PID.TID 0000.0001) // =======================================================
(PID.TID 0000.0001) // Begin MONITOR dynamic field statistics
(PID.TID 0000.0001) // =======================================================
(PID.TID 0000.0001) %MON time_tsnumber                =                  8646
(PID.TID 0000.0001) %MON time_secondsf                =   1.5562800000000E+07
(PID.TID 0000.0001) %MON dynstat_eta_max              =   1.1278281636206E-02
(PID.TID 0000.0001) %MON dynstat_eta_min              =  -3.5685812675177E-03
(PID.TID 0000.0001) %MON dynstat_eta_mean             =  -2.8005139388186E-16
(PID.TID 0000.0001) %MON dynstat_eta_sd               =   9.9391071174961E-04
(PID.TID 0000.0001) %MON dynstat_eta_del2             =   8.2890485793665E-06
(PID.TID 0000.0001) %MON dynstat_uvel_max             =   6.9469878482721E-03
(PID.TID 0000.0001) %MON dynstat_uvel_min             =  -1.3058696761923E-02
(PID.TID 0000.0001) %MON dynstat_uvel_mean            =   2.9937699289179E-05
(PID.TID 0000.0001) %MON dynstat_uvel_sd              =   1.2250708184080E-03
(PID.TID 0000.0001) %MON dynstat_uvel_del2            =   1.9943462555078E-06
(PID.TID 0000.0001) %MON dynstat_vvel_max             =   4.1240627224287E-02
(PID.TID 0000.0001) %MON dynstat_vvel_min             =  -1.3300966845983E-02
(PID.TID 0000.0001) %MON dynstat_vvel_mean            =   1.2511135040663E-05
(PID.TID 0000.0001) %MON dynstat_vvel_sd              =   2.8056044840162E-03
(PID.TID 0000.0001) %MON dynstat_vvel_del2            =   4.9164502741140E-06
(PID.TID 0000.0001) %MON dynstat_wvel_max             =   4.8405331769267E-05
(PID.TID 0000.0001) %MON dynstat_wvel_min             =  -1.2067015951631E-04
(PID.TID 0000.0001) %MON dynstat_wvel_mean            =   4.5011431063998E-09
(PID.TID 0000.0001) %MON dynstat_wvel_sd              =   4.0782459548764E-06
(PID.TID 0000.0001) %MON dynstat_wvel_del2            =   1.7788810167008E-08
(PID.TID 0000.0001) %MON dynstat_theta_max            =  -1.8889859223324E+00
(PID.TID 0000.0001) %MON dynstat_theta_min            =  -2.0161525010076E+00
(PID.TID 0000.0001) %MON dynstat_theta_mean           =  -1.9144704296197E+00
(PID.TID 0000.0001) %MON dynstat_theta_sd             =   3.1585993019487E-02
(PID.TID 0000.0001) %MON dynstat_theta_del2           =   6.2484509823417E-06
(PID.TID 0000.0001) %MON dynstat_salt_max             =   3.4404470693763E+01
(PID.TID 0000.0001) %MON dynstat_salt_min             =   3.4114359787246E+01
(PID.TID 0000.0001) %MON dynstat_salt_mean            =   3.4391171903245E+01
(PID.TID 0000.0001) %MON dynstat_salt_sd              =   2.4211297586091E-02
(PID.TID 0000.0001) %MON dynstat_salt_del2            =   3.4997007509063E-06
(PID.TID 0000.0001) %MON advcfl_uvel_max              =   3.8855375012610E-03
(PID.TID 0000.0001) %MON advcfl_vvel_max              =   6.6769937079484E-03
(PID.TID 0000.0001) %MON advcfl_wvel_max              =   7.2402095709789E-03
(PID.TID 0000.0001) %MON advcfl_W_hf_max              =   7.2402095709789E-03
(PID.TID 0000.0001) %MON pe_b_mean                    =  -1.4616268980633E-07
(PID.TID 0000.0001) %MON ke_max                       =   8.3884748922250E-04
(PID.TID 0000.0001) %MON ke_mean                      =   4.6250317008870E-06
(PID.TID 0000.0001) %MON ke_vol                       =   2.9239970672188E+14
(PID.TID 0000.0001) %MON vort_r_min                   =  -2.3629253979712E-06
(PID.TID 0000.0001) %MON vort_r_max                   =   4.4574504373591E-06
(PID.TID 0000.0001) %MON vort_a_mean                  =  -1.4007161471754E-04
(PID.TID 0000.0001) %MON vort_a_sd                    =   1.7879599554101E-06
(PID.TID 0000.0001) %MON vort_p_mean                  =  -1.5023175270914E-04
(PID.TID 0000.0001) %MON vort_p_sd                    =   7.5269585809515E-05
(PID.TID 0000.0001) %MON surfExpan_theta_mean         =   8.4734215647312E-11
(PID.TID 0000.0001) %MON surfExpan_salt_mean          =   8.8132729066049E-10
(PID.TID 0000.0001) // =======================================================
(PID.TID 0000.0001) // End MONITOR dynamic field statistics
(PID.TID 0000.0001) // =======================================================
 cg2d: Sum(rhs),rhsMax =   7.19394379136706E-13  5.84578192080007E-02
(PID.TID 0000.0001)      cg2d_init_res =   3.77994044315289E-02
(PID.TID 0000.0001)      cg2d_iters(min,last) =      -1     194
(PID.TID 0000.0001)      cg2d_last_res =   9.62868289229709E-14
(PID.TID 0000.0001) // =======================================================
(PID.TID 0000.0001) // Begin MONITOR dynamic field statistics
(PID.TID 0000.0001) // =======================================================
(PID.TID 0000.0001) %MON time_tsnumber                =                  8647
(PID.TID 0000.0001) %MON time_secondsf                =   1.5564600000000E+07
(PID.TID 0000.0001) %MON dynstat_eta_max              =   1.1187253624122E-02
(PID.TID 0000.0001) %MON dynstat_eta_min              =  -3.4919914937967E-03
(PID.TID 0000.0001) %MON dynstat_eta_mean             =  -2.8008920058833E-16
(PID.TID 0000.0001) %MON dynstat_eta_sd               =   9.8431421319017E-04
(PID.TID 0000.0001) %MON dynstat_eta_del2             =   8.2911388428762E-06
(PID.TID 0000.0001) %MON dynstat_uvel_max             =   6.9654270911480E-03
(PID.TID 0000.0001) %MON dynstat_uvel_min             =  -1.3135062327623E-02
(PID.TID 0000.0001) %MON dynstat_uvel_mean            =   3.0025310997576E-05
(PID.TID 0000.0001) %MON dynstat_uvel_sd              =   1.2395473149586E-03
(PID.TID 0000.0001) %MON dynstat_uvel_del2            =   1.8893923835301E-06
(PID.TID 0000.0001) %MON dynstat_vvel_max             =   4.1501908871117E-02
(PID.TID 0000.0001) %MON dynstat_vvel_min             =  -1.3316339325430E-02
(PID.TID 0000.0001) %MON dynstat_vvel_mean            =   9.9208857725438E-06
(PID.TID 0000.0001) %MON dynstat_vvel_sd              =   2.8090509854873E-03
(PID.TID 0000.0001) %MON dynstat_vvel_del2            =   4.9190725958812E-06
(PID.TID 0000.0001) %MON dynstat_wvel_max             =   4.8868677646120E-05
(PID.TID 0000.0001) %MON dynstat_wvel_min             =  -1.2090365982538E-04
(PID.TID 0000.0001) %MON dynstat_wvel_mean            =   2.7942025622287E-09
(PID.TID 0000.0001) %MON dynstat_wvel_sd              =   4.1430921370412E-06
(PID.TID 0000.0001) %MON dynstat_wvel_del2            =   1.8198767782565E-08
(PID.TID 0000.0001) %MON dynstat_theta_max            =  -1.8896979023311E+00
(PID.TID 0000.0001) %MON dynstat_theta_min            =  -2.0185605390661E+00
(PID.TID 0000.0001) %MON dynstat_theta_mean           =  -1.9144972016330E+00
(PID.TID 0000.0001) %MON dynstat_theta_sd             =   3.1663241018972E-02
(PID.TID 0000.0001) %MON dynstat_theta_del2           =   6.2584233541665E-06
(PID.TID 0000.0001) %MON dynstat_salt_max             =   3.4404199924839E+01
(PID.TID 0000.0001) %MON dynstat_salt_min             =   3.4113580097817E+01
(PID.TID 0000.0001) %MON dynstat_salt_mean            =   3.4391161265601E+01
(PID.TID 0000.0001) %MON dynstat_salt_sd              =   2.4259285783818E-02
(PID.TID 0000.0001) %MON dynstat_salt_del2            =   3.5306385406128E-06
(PID.TID 0000.0001) %MON advcfl_uvel_max              =   3.9082596208371E-03
(PID.TID 0000.0001) %MON advcfl_vvel_max              =   6.7192960692195E-03
(PID.TID 0000.0001) %MON advcfl_wvel_max              =   7.2542195895228E-03
(PID.TID 0000.0001) %MON advcfl_W_hf_max              =   7.2542195895228E-03
(PID.TID 0000.0001) %MON pe_b_mean                    =  -1.1792897629778E-07
(PID.TID 0000.0001) %MON ke_max                       =   8.5075909339759E-04
(PID.TID 0000.0001) %MON ke_mean                      =   4.6520427027938E-06
(PID.TID 0000.0001) %MON ke_vol                       =   2.9239970672188E+14
(PID.TID 0000.0001) %MON vort_r_min                   =  -2.3617255387596E-06
(PID.TID 0000.0001) %MON vort_r_max                   =   4.4657302489676E-06
(PID.TID 0000.0001) %MON vort_a_mean                  =  -1.4007161561740E-04
(PID.TID 0000.0001) %MON vort_a_sd                    =   1.7879315181965E-06
(PID.TID 0000.0001) %MON vort_p_mean                  =  -1.5023175363421E-04
(PID.TID 0000.0001) %MON vort_p_sd                    =   7.5269634234589E-05
(PID.TID 0000.0001) %MON surfExpan_theta_mean         =   5.9960020407830E-11
(PID.TID 0000.0001) %MON surfExpan_salt_mean          =   5.3317180041209E-10
(PID.TID 0000.0001) // =======================================================
(PID.TID 0000.0001) // End MONITOR dynamic field statistics
(PID.TID 0000.0001) // =======================================================
 cg2d: Sum(rhs),rhsMax =   7.18592313474556E-13  5.85316038703550E-02
(PID.TID 0000.0001)      cg2d_init_res =   3.72532574184791E-02
(PID.TID 0000.0001)      cg2d_iters(min,last) =      -1     195
(PID.TID 0000.0001)      cg2d_last_res =   8.62856332007459E-14
(PID.TID 0000.0001) // =======================================================
(PID.TID 0000.0001) // Begin MONITOR dynamic field statistics
(PID.TID 0000.0001) // =======================================================
(PID.TID 0000.0001) %MON time_tsnumber                =                  8648
(PID.TID 0000.0001) %MON time_secondsf                =   1.5566400000000E+07
(PID.TID 0000.0001) %MON dynstat_eta_max              =   1.1121532800302E-02
(PID.TID 0000.0001) %MON dynstat_eta_min              =  -3.4092009795973E-03
(PID.TID 0000.0001) %MON dynstat_eta_mean             =  -2.8008811296965E-16
(PID.TID 0000.0001) %MON dynstat_eta_sd               =   9.7677245430251E-04
(PID.TID 0000.0001) %MON dynstat_eta_del2             =   8.2929220849788E-06
(PID.TID 0000.0001) %MON dynstat_uvel_max             =   6.9884171912638E-03
(PID.TID 0000.0001) %MON dynstat_uvel_min             =  -1.3163352156014E-02
(PID.TID 0000.0001) %MON dynstat_uvel_mean            =   3.0162934114438E-05
(PID.TID 0000.0001) %MON dynstat_uvel_sd              =   1.2538028908883E-03
(PID.TID 0000.0001) %MON dynstat_uvel_del2            =   1.7760481401620E-06
(PID.TID 0000.0001) %MON dynstat_vvel_max             =   4.1704597380667E-02
(PID.TID 0000.0001) %MON dynstat_vvel_min             =  -1.3327226689770E-02
(PID.TID 0000.0001) %MON dynstat_vvel_mean            =   6.2619564996329E-06
(PID.TID 0000.0001) %MON dynstat_vvel_sd              =   2.8116028545657E-03
(PID.TID 0000.0001) %MON dynstat_vvel_del2            =   4.9225652233489E-06
(PID.TID 0000.0001) %MON dynstat_wvel_max             =   4.9269120731060E-05
(PID.TID 0000.0001) %MON dynstat_wvel_min             =  -1.2113180319451E-04
(PID.TID 0000.0001) %MON dynstat_wvel_mean            =   1.2182824836439E-09
(PID.TID 0000.0001) %MON dynstat_wvel_sd              =   4.2228815062004E-06
(PID.TID 0000.0001) %MON dynstat_wvel_del2            =   1.8687091750707E-08
(PID.TID 0000.0001) %MON dynstat_theta_max            =  -1.8902293324242E+00
(PID.TID 0000.0001) %MON dynstat_theta_min            =  -2.0209558623020E+00
(PID.TID 0000.0001) %MON dynstat_theta_mean           =  -1.9145238401678E+00
(PID.TID 0000.0001) %MON dynstat_theta_sd             =   3.1740711985235E-02
(PID.TID 0000.0001) %MON dynstat_theta_del2           =   6.2739584733206E-06
(PID.TID 0000.0001) %MON dynstat_salt_max             =   3.4404000282540E+01
(PID.TID 0000.0001) %MON dynstat_salt_min             =   3.4112803744234E+01
(PID.TID 0000.0001) %MON dynstat_salt_mean            =   3.4391150680849E+01
(PID.TID 0000.0001) %MON dynstat_salt_sd              =   2.4307079939718E-02
(PID.TID 0000.0001) %MON dynstat_salt_del2            =   3.5628637542011E-06
(PID.TID 0000.0001) %MON advcfl_uvel_max              =   3.9166770909048E-03
(PID.TID 0000.0001) %MON advcfl_vvel_max              =   6.7521120081134E-03
(PID.TID 0000.0001) %MON advcfl_wvel_max              =   7.2679081916706E-03
(PID.TID 0000.0001) %MON advcfl_W_hf_max              =   7.2679081916706E-03
(PID.TID 0000.0001) %MON pe_b_mean                    =  -1.0275582712525E-07
(PID.TID 0000.0001) %MON ke_max                       =   8.6099248426342E-04
(PID.TID 0000.0001) %MON ke_mean                      =   4.6765141385109E-06
(PID.TID 0000.0001) %MON ke_vol                       =   2.9239970672188E+14
(PID.TID 0000.0001) %MON vort_r_min                   =  -2.3601590581018E-06
(PID.TID 0000.0001) %MON vort_r_max                   =   4.4661646200622E-06
(PID.TID 0000.0001) %MON vort_a_mean                  =  -1.4007161645716E-04
(PID.TID 0000.0001) %MON vort_a_sd                    =   1.7879061051825E-06
(PID.TID 0000.0001) %MON vort_p_mean                  =  -1.5023175453435E-04
(PID.TID 0000.0001) %MON vort_p_sd                    =   7.5269756820268E-05
(PID.TID 0000.0001) %MON surfExpan_theta_mean         =   2.9030134349821E-11
(PID.TID 0000.0001) %MON surfExpan_salt_mean          =   2.1602794506507E-10
(PID.TID 0000.0001) // =======================================================
(PID.TID 0000.0001) // End MONITOR dynamic field statistics
(PID.TID 0000.0001) // =======================================================
 cg2d: Sum(rhs),rhsMax =   7.14733393997191E-13  5.86174983921111E-02
(PID.TID 0000.0001)      cg2d_init_res =   3.69626631461363E-02
(PID.TID 0000.0001)      cg2d_iters(min,last) =      -1     195
(PID.TID 0000.0001)      cg2d_last_res =   7.95944350894369E-14
(PID.TID 0000.0001) // =======================================================
(PID.TID 0000.0001) // Begin MONITOR dynamic field statistics
(PID.TID 0000.0001) // =======================================================
(PID.TID 0000.0001) %MON time_tsnumber                =                  8649
(PID.TID 0000.0001) %MON time_secondsf                =   1.5568200000000E+07
(PID.TID 0000.0001) %MON dynstat_eta_max              =   1.1078191383406E-02
(PID.TID 0000.0001) %MON dynstat_eta_min              =  -3.3172823509927E-03
(PID.TID 0000.0001) %MON dynstat_eta_mean             =  -2.7969005077392E-16
(PID.TID 0000.0001) %MON dynstat_eta_sd               =   9.7066971355250E-04
(PID.TID 0000.0001) %MON dynstat_eta_del2             =   8.2943505801727E-06
(PID.TID 0000.0001) %MON dynstat_uvel_max             =   7.0144344713194E-03
(PID.TID 0000.0001) %MON dynstat_uvel_min             =  -1.3147343000875E-02
(PID.TID 0000.0001) %MON dynstat_uvel_mean            =   3.0362317438808E-05
(PID.TID 0000.0001) %MON dynstat_uvel_sd              =   1.2674330794093E-03
(PID.TID 0000.0001) %MON dynstat_uvel_del2            =   1.6851662471283E-06
(PID.TID 0000.0001) %MON dynstat_vvel_max             =   4.1841108672122E-02
(PID.TID 0000.0001) %MON dynstat_vvel_min             =  -1.3333191427637E-02
(PID.TID 0000.0001) %MON dynstat_vvel_mean            =   2.1734998572469E-06
(PID.TID 0000.0001) %MON dynstat_vvel_sd              =   2.8132630935087E-03
(PID.TID 0000.0001) %MON dynstat_vvel_del2            =   4.9268687828446E-06
(PID.TID 0000.0001) %MON dynstat_wvel_max             =   4.9582528786019E-05
(PID.TID 0000.0001) %MON dynstat_wvel_min             =  -1.2134249504890E-04
(PID.TID 0000.0001) %MON dynstat_wvel_mean            =  -1.4114449951170E-10
(PID.TID 0000.0001) %MON dynstat_wvel_sd              =   4.3137190636249E-06
(PID.TID 0000.0001) %MON dynstat_wvel_del2            =   1.9217155878358E-08
(PID.TID 0000.0001) %MON dynstat_theta_max            =  -1.8906269798588E+00
(PID.TID 0000.0001) %MON dynstat_theta_min            =  -2.0233385975324E+00
(PID.TID 0000.0001) %MON dynstat_theta_mean           =  -1.9145503459504E+00
(PID.TID 0000.0001) %MON dynstat_theta_sd             =   3.1818392921163E-02
(PID.TID 0000.0001) %MON dynstat_theta_del2           =   6.2948381355758E-06
(PID.TID 0000.0001) %MON dynstat_salt_max             =   3.4403853029200E+01
(PID.TID 0000.0001) %MON dynstat_salt_min             =   3.4112030224449E+01
(PID.TID 0000.0001) %MON dynstat_salt_mean            =   3.4391140148644E+01
(PID.TID 0000.0001) %MON dynstat_salt_sd              =   2.4354680000564E-02
(PID.TID 0000.0001) %MON dynstat_salt_del2            =   3.5963025850741E-06
(PID.TID 0000.0001) %MON advcfl_uvel_max              =   3.9119136620733E-03
(PID.TID 0000.0001) %MON advcfl_vvel_max              =   6.7742136369065E-03
(PID.TID 0000.0001) %MON advcfl_wvel_max              =   7.2805497029342E-03
(PID.TID 0000.0001) %MON advcfl_W_hf_max              =   7.2805497029342E-03
(PID.TID 0000.0001) %MON pe_b_mean                    =  -9.9747720124391E-08
(PID.TID 0000.0001) %MON ke_max                       =   8.6903929977350E-04
(PID.TID 0000.0001) %MON ke_mean                      =   4.6979492123676E-06
(PID.TID 0000.0001) %MON ke_vol                       =   2.9239970672188E+14
(PID.TID 0000.0001) %MON vort_r_min                   =  -2.3585075320293E-06
(PID.TID 0000.0001) %MON vort_r_max                   =   4.4593852447928E-06
(PID.TID 0000.0001) %MON vort_a_mean                  =  -1.4007161696871E-04
(PID.TID 0000.0001) %MON vort_a_sd                    =   1.7878927121510E-06
(PID.TID 0000.0001) %MON vort_p_mean                  =  -1.5023175510290E-04
(PID.TID 0000.0001) %MON vort_p_sd                    =   7.5269923482906E-05
(PID.TID 0000.0001) %MON surfExpan_theta_mean         =  -4.6411837608568E-12
(PID.TID 0000.0001) %MON surfExpan_salt_mean          =  -5.7041600152621E-11
(PID.TID 0000.0001) // =======================================================
(PID.TID 0000.0001) // End MONITOR dynamic field statistics
(PID.TID 0000.0001) // =======================================================
 cg2d: Sum(rhs),rhsMax =   7.13132248464029E-13  5.87136921130392E-02
(PID.TID 0000.0001)      cg2d_init_res =   3.68765445981748E-02
(PID.TID 0000.0001)      cg2d_iters(min,last) =      -1     192
(PID.TID 0000.0001)      cg2d_last_res =   9.86636914498412E-14
(PID.TID 0000.0001) // =======================================================
(PID.TID 0000.0001) // Begin MONITOR dynamic field statistics
(PID.TID 0000.0001) // =======================================================
(PID.TID 0000.0001) %MON time_tsnumber                =                  8650
(PID.TID 0000.0001) %MON time_secondsf                =   1.5570000000000E+07
(PID.TID 0000.0001) %MON dynstat_eta_max              =   1.1052305659972E-02
(PID.TID 0000.0001) %MON dynstat_eta_min              =  -3.3283760788366E-03
(PID.TID 0000.0001) %MON dynstat_eta_mean             =  -2.7991649277376E-16
(PID.TID 0000.0001) %MON dynstat_eta_sd               =   9.6546876971375E-04
(PID.TID 0000.0001) %MON dynstat_eta_del2             =   8.2954506125408E-06
(PID.TID 0000.0001) %MON dynstat_uvel_max             =   7.0418020272937E-03
(PID.TID 0000.0001) %MON dynstat_uvel_min             =  -1.3094167360370E-02
(PID.TID 0000.0001) %MON dynstat_uvel_mean            =   3.0502150706458E-05
(PID.TID 0000.0001) %MON dynstat_uvel_sd              =   1.2799547293459E-03
(PID.TID 0000.0001) %MON dynstat_uvel_del2            =   1.6410547536745E-06
(PID.TID 0000.0001) %MON dynstat_vvel_max             =   4.1908457723410E-02
(PID.TID 0000.0001) %MON dynstat_vvel_min             =  -1.3334683536067E-02
(PID.TID 0000.0001) %MON dynstat_vvel_mean            =  -1.7269604018772E-06
(PID.TID 0000.0001) %MON dynstat_vvel_sd              =   2.8140881728201E-03
(PID.TID 0000.0001) %MON dynstat_vvel_del2            =   4.9318392167269E-06
(PID.TID 0000.0001) %MON dynstat_wvel_max             =   4.9955860937386E-05
(PID.TID 0000.0001) %MON dynstat_wvel_min             =  -1.2152535208304E-04
(PID.TID 0000.0001) %MON dynstat_wvel_mean            =  -1.2797301764135E-09
(PID.TID 0000.0001) %MON dynstat_wvel_sd              =   4.4104230899219E-06
(PID.TID 0000.0001) %MON dynstat_wvel_del2            =   1.9750746143799E-08
(PID.TID 0000.0001) %MON dynstat_theta_max            =  -1.8909251371368E+00
(PID.TID 0000.0001) %MON dynstat_theta_min            =  -2.0257088924561E+00
(PID.TID 0000.0001) %MON dynstat_theta_mean           =  -1.9145767196973E+00
(PID.TID 0000.0001) %MON dynstat_theta_sd             =   3.1896271240797E-02
(PID.TID 0000.0001) %MON dynstat_theta_del2           =   6.3208480572554E-06
(PID.TID 0000.0001) %MON dynstat_salt_max             =   3.4403744418545E+01
(PID.TID 0000.0001) %MON dynstat_salt_min             =   3.4111259146814E+01
(PID.TID 0000.0001) %MON dynstat_salt_mean            =   3.4391129668711E+01
(PID.TID 0000.0001) %MON dynstat_salt_sd              =   2.4402085702978E-02
(PID.TID 0000.0001) %MON dynstat_salt_del2            =   3.6308739042869E-06
(PID.TID 0000.0001) %MON advcfl_uvel_max              =   3.8960915667217E-03
(PID.TID 0000.0001) %MON advcfl_vvel_max              =   6.7851176706702E-03
(PID.TID 0000.0001) %MON advcfl_wvel_max              =   7.2915211249826E-03
(PID.TID 0000.0001) %MON advcfl_W_hf_max              =   7.2915211249826E-03
(PID.TID 0000.0001) %MON pe_b_mean                    =  -1.0722287784237E-07
(PID.TID 0000.0001) %MON ke_max                       =   8.7454229640242E-04
(PID.TID 0000.0001) %MON ke_mean                      =   4.7158699920447E-06
(PID.TID 0000.0001) %MON ke_vol                       =   2.9239970672188E+14
(PID.TID 0000.0001) %MON vort_r_min                   =  -2.3570828223764E-06
(PID.TID 0000.0001) %MON vort_r_max                   =   4.4466592028801E-06
(PID.TID 0000.0001) %MON vort_a_mean                  =  -1.4007161696999E-04
(PID.TID 0000.0001) %MON vort_a_sd                    =   1.7878959132211E-06
(PID.TID 0000.0001) %MON vort_p_mean                  =  -1.5023175511787E-04
(PID.TID 0000.0001) %MON vort_p_sd                    =   7.5270102085567E-05
(PID.TID 0000.0001) %MON surfExpan_theta_mean         =  -3.9154606746916E-11
(PID.TID 0000.0001) %MON surfExpan_salt_mean          =  -2.8728190923166E-10
(PID.TID 0000.0001) // =======================================================
(PID.TID 0000.0001) // End MONITOR dynamic field statistics
(PID.TID 0000.0001) // =======================================================
(PID.TID 0000.0001) %CHECKPOINT      8650 ckptA
 --> objf_shelfice(bi,bj) =  0.000000000000000D+00
 --> objf_shifwflx(bi,bj) =  0.000000000000000D+00
 --> objf_test(bi,bj)   =  0.369884273949143D+06
 --> objf_tracer(bi,bj) =  0.000000000000000D+00
 --> objf_atl(bi,bj)    =  0.000000000000000D+00
  local fc =  0.369884273949143D+06
 global fc =  0.369884273949143D+06
(PID.TID 0000.0001) SOLVE_FOR_PRESSURE: putPmEinXvector =    F
 cg2d: Sum(rhs),rhsMax =   7.04913205714849E-13  5.97849185308842E-02
 cg2d: Sum(rhs),rhsMax =   7.17390177210758E-13  5.85454507336924E-02
 cg2d: Sum(rhs),rhsMax =   7.16628470974479E-13  5.84668669787601E-02
 cg2d: Sum(rhs),rhsMax =   7.16416644975029E-13  5.84481243740208E-02
 cg2d: Sum(rhs),rhsMax =   7.19141570295137E-13  5.83931392123464E-02
 cg2d: Sum(rhs),rhsMax =   7.17101223779264E-13  5.83957488429974E-02
 cg2d: Sum(rhs),rhsMax =   7.19394379136706E-13  5.84578192080007E-02
 cg2d: Sum(rhs),rhsMax =   7.18592313474556E-13  5.85316038703550E-02
 cg2d: Sum(rhs),rhsMax =   7.14733393997191E-13  5.86174983921111E-02
 cg2d: Sum(rhs),rhsMax =   7.13132248464029E-13  5.87136921130392E-02
(PID.TID 0000.0001) Did not write pickup because writePickupAtEnd = FALSE
 cg2d: Sum(rhs),rhsMax =   7.14733393997191E-13  5.86174983921111E-02
 cg2d: Sum(rhs),rhsMax =   7.13132248464029E-13  5.87136921130392E-02
(PID.TID 0000.0001) Did not write pickup because writePickupAtEnd = FALSE
 cg2d: Sum(rhs),rhsMax =   7.13132248464029E-13  5.87136921130392E-02
(PID.TID 0000.0001) Did not write pickup because writePickupAtEnd = FALSE
(PID.TID 0000.0001) // =======================================================
(PID.TID 0000.0001) // Begin MONITOR dynamic field statistics
(PID.TID 0000.0001) // =======================================================
(PID.TID 0000.0001) %MON ad_time_tsnumber             =                  8650
(PID.TID 0000.0001) %MON ad_time_secondsf             =   1.5570000000000E+07
(PID.TID 0000.0001) %MON ad_dynstat_adeta_max         =   0.0000000000000E+00
(PID.TID 0000.0001) %MON ad_dynstat_adeta_min         =   0.0000000000000E+00
(PID.TID 0000.0001) %MON ad_dynstat_adeta_mean        =   0.0000000000000E+00
(PID.TID 0000.0001) %MON ad_dynstat_adeta_sd          =   0.0000000000000E+00
(PID.TID 0000.0001) %MON ad_dynstat_adeta_del2        =   0.0000000000000E+00
(PID.TID 0000.0001) %MON ad_dynstat_aduvel_max        =   0.0000000000000E+00
(PID.TID 0000.0001) %MON ad_dynstat_aduvel_min        =   0.0000000000000E+00
(PID.TID 0000.0001) %MON ad_dynstat_aduvel_mean       =   0.0000000000000E+00
(PID.TID 0000.0001) %MON ad_dynstat_aduvel_sd         =   0.0000000000000E+00
(PID.TID 0000.0001) %MON ad_dynstat_aduvel_del2       =   0.0000000000000E+00
(PID.TID 0000.0001) %MON ad_dynstat_advvel_max        =   0.0000000000000E+00
(PID.TID 0000.0001) %MON ad_dynstat_advvel_min        =   0.0000000000000E+00
(PID.TID 0000.0001) %MON ad_dynstat_advvel_mean       =   0.0000000000000E+00
(PID.TID 0000.0001) %MON ad_dynstat_advvel_sd         =   0.0000000000000E+00
(PID.TID 0000.0001) %MON ad_dynstat_advvel_del2       =   0.0000000000000E+00
(PID.TID 0000.0001) %MON ad_dynstat_adwvel_max        =   0.0000000000000E+00
(PID.TID 0000.0001) %MON ad_dynstat_adwvel_min        =   0.0000000000000E+00
(PID.TID 0000.0001) %MON ad_dynstat_adwvel_mean       =   0.0000000000000E+00
(PID.TID 0000.0001) %MON ad_dynstat_adwvel_sd         =   0.0000000000000E+00
(PID.TID 0000.0001) %MON ad_dynstat_adwvel_del2       =   0.0000000000000E+00
(PID.TID 0000.0001) %MON ad_dynstat_adtheta_max       =  -3.7818502742735E+00
(PID.TID 0000.0001) %MON ad_dynstat_adtheta_min       =  -4.0514177849123E+00
(PID.TID 0000.0001) %MON ad_dynstat_adtheta_mean      =  -3.8291534393946E+00
(PID.TID 0000.0001) %MON ad_dynstat_adtheta_sd        =   6.3792542481594E-02
(PID.TID 0000.0001) %MON ad_dynstat_adtheta_del2      =   1.2641696114511E-05
(PID.TID 0000.0001) %MON ad_dynstat_adsalt_max        =   0.0000000000000E+00
(PID.TID 0000.0001) %MON ad_dynstat_adsalt_min        =   0.0000000000000E+00
(PID.TID 0000.0001) %MON ad_dynstat_adsalt_mean       =   0.0000000000000E+00
(PID.TID 0000.0001) %MON ad_dynstat_adsalt_sd         =   0.0000000000000E+00
(PID.TID 0000.0001) %MON ad_dynstat_adsalt_del2       =   0.0000000000000E+00
(PID.TID 0000.0001) %MON ad_dynstat_adsst_max         =   0.0000000000000E+00
(PID.TID 0000.0001) %MON ad_dynstat_adsst_min         =   0.0000000000000E+00
(PID.TID 0000.0001) %MON ad_dynstat_adsst_mean        =   0.0000000000000E+00
(PID.TID 0000.0001) %MON ad_dynstat_adsst_sd          =   0.0000000000000E+00
(PID.TID 0000.0001) %MON ad_dynstat_adsst_del2        =   0.0000000000000E+00
(PID.TID 0000.0001) %MON ad_dynstat_adsss_max         =   0.0000000000000E+00
(PID.TID 0000.0001) %MON ad_dynstat_adsss_min         =   0.0000000000000E+00
(PID.TID 0000.0001) %MON ad_dynstat_adsss_mean        =   0.0000000000000E+00
(PID.TID 0000.0001) %MON ad_dynstat_adsss_sd          =   0.0000000000000E+00
(PID.TID 0000.0001) %MON ad_dynstat_adsss_del2        =   0.0000000000000E+00
(PID.TID 0000.0001) %MON ad_forcing_adqnet_max        =   0.0000000000000E+00
(PID.TID 0000.0001) %MON ad_forcing_adqnet_min        =   0.0000000000000E+00
(PID.TID 0000.0001) %MON ad_forcing_adqnet_mean       =   0.0000000000000E+00
(PID.TID 0000.0001) %MON ad_forcing_adqnet_sd         =   0.0000000000000E+00
(PID.TID 0000.0001) %MON ad_forcing_adqnet_del2       =   0.0000000000000E+00
(PID.TID 0000.0001) %MON ad_forcing_adempmr_max       =   0.0000000000000E+00
(PID.TID 0000.0001) %MON ad_forcing_adempmr_min       =   0.0000000000000E+00
(PID.TID 0000.0001) %MON ad_forcing_adempmr_mean      =   0.0000000000000E+00
(PID.TID 0000.0001) %MON ad_forcing_adempmr_sd        =   0.0000000000000E+00
(PID.TID 0000.0001) %MON ad_forcing_adempmr_del2      =   0.0000000000000E+00
(PID.TID 0000.0001) %MON ad_forcing_adfu_max          =   0.0000000000000E+00
(PID.TID 0000.0001) %MON ad_forcing_adfu_min          =   0.0000000000000E+00
(PID.TID 0000.0001) %MON ad_forcing_adfu_mean         =   0.0000000000000E+00
(PID.TID 0000.0001) %MON ad_forcing_adfu_sd           =   0.0000000000000E+00
(PID.TID 0000.0001) %MON ad_forcing_adfu_del2         =   0.0000000000000E+00
(PID.TID 0000.0001) %MON ad_forcing_adfv_max          =   0.0000000000000E+00
(PID.TID 0000.0001) %MON ad_forcing_adfv_min          =   0.0000000000000E+00
(PID.TID 0000.0001) %MON ad_forcing_adfv_mean         =   0.0000000000000E+00
(PID.TID 0000.0001) %MON ad_forcing_adfv_sd           =   0.0000000000000E+00
(PID.TID 0000.0001) %MON ad_forcing_adfv_del2         =   0.0000000000000E+00
(PID.TID 0000.0001) %MON ad_advcfl_aduvel_max         =   0.0000000000000E+00
(PID.TID 0000.0001) %MON ad_advcfl_advvel_max         =   0.0000000000000E+00
(PID.TID 0000.0001) %MON ad_advcfl_adwvel_max         =   0.0000000000000E+00
(PID.TID 0000.0001) %MON ad_advcfl_adW_hf_max         =   0.0000000000000E+00
(PID.TID 0000.0001) // =======================================================
(PID.TID 0000.0001) // End MONITOR dynamic field statistics
(PID.TID 0000.0001) // =======================================================
 cg2d: Sum(rhs),rhsMax =   1.58553725704280E-15  5.90320644128950E-05
 cg2d: Sum(rhs),rhsMax =   7.14733393997191E-13  5.86174983921111E-02
(PID.TID 0000.0001) // =======================================================
(PID.TID 0000.0001) // Begin MONITOR dynamic field statistics
(PID.TID 0000.0001) // =======================================================
(PID.TID 0000.0001) %MON ad_time_tsnumber             =                  8649
(PID.TID 0000.0001) %MON ad_time_secondsf             =   1.5568200000000E+07
(PID.TID 0000.0001) %MON ad_dynstat_adeta_max         =   1.5174900057229E-02
(PID.TID 0000.0001) %MON ad_dynstat_adeta_min         =  -2.1537347554545E-02
(PID.TID 0000.0001) %MON ad_dynstat_adeta_mean        =  -2.0252197001358E-07
(PID.TID 0000.0001) %MON ad_dynstat_adeta_sd          =   2.3537639871001E-03
(PID.TID 0000.0001) %MON ad_dynstat_adeta_del2        =   3.5306462246573E-05
(PID.TID 0000.0001) %MON ad_dynstat_aduvel_max        =   4.4126312195858E-04
(PID.TID 0000.0001) %MON ad_dynstat_aduvel_min        =  -6.5878170825830E-04
(PID.TID 0000.0001) %MON ad_dynstat_aduvel_mean       =  -1.3997399057753E-06
(PID.TID 0000.0001) %MON ad_dynstat_aduvel_sd         =   9.1532014577829E-06
(PID.TID 0000.0001) %MON ad_dynstat_aduvel_del2       =   3.5000031248428E-08
(PID.TID 0000.0001) %MON ad_dynstat_advvel_max        =   1.5061046627756E-03
(PID.TID 0000.0001) %MON ad_dynstat_advvel_min        =  -2.0953674997720E-03
(PID.TID 0000.0001) %MON ad_dynstat_advvel_mean       =   5.4980499467117E-04
(PID.TID 0000.0001) %MON ad_dynstat_advvel_sd         =   3.4926783754924E-04
(PID.TID 0000.0001) %MON ad_dynstat_advvel_del2       =   5.7433205981298E-07
(PID.TID 0000.0001) %MON ad_dynstat_adwvel_max        =   7.8360179968984E-04
(PID.TID 0000.0001) %MON ad_dynstat_adwvel_min        =  -1.0941160841315E-03
(PID.TID 0000.0001) %MON ad_dynstat_adwvel_mean       =  -1.3787535156997E-06
(PID.TID 0000.0001) %MON ad_dynstat_adwvel_sd         =   1.6827176288428E-05
(PID.TID 0000.0001) %MON ad_dynstat_adwvel_del2       =   8.4557677559462E-08
(PID.TID 0000.0001) %MON ad_dynstat_adtheta_max       =  -3.7826843357296E+00
(PID.TID 0000.0001) %MON ad_dynstat_adtheta_min       =  -4.0347949889858E+00
(PID.TID 0000.0001) %MON ad_dynstat_adtheta_mean      =  -3.8268695618230E+00
(PID.TID 0000.0001) %MON ad_dynstat_adtheta_sd        =   5.7713359696147E-02
(PID.TID 0000.0001) %MON ad_dynstat_adtheta_del2      =   1.7094030255583E-05
(PID.TID 0000.0001) %MON ad_dynstat_adsalt_max        =   3.9147668926623E-03
(PID.TID 0000.0001) %MON ad_dynstat_adsalt_min        =  -3.7424461624160E-04
(PID.TID 0000.0001) %MON ad_dynstat_adsalt_mean       =   1.2888544949385E-04
(PID.TID 0000.0001) %MON ad_dynstat_adsalt_sd         =   5.3998914062280E-04
(PID.TID 0000.0001) %MON ad_dynstat_adsalt_del2       =   8.8531425566485E-07
(PID.TID 0000.0001) %MON ad_dynstat_adsst_max         =   0.0000000000000E+00
(PID.TID 0000.0001) %MON ad_dynstat_adsst_min         =   0.0000000000000E+00
(PID.TID 0000.0001) %MON ad_dynstat_adsst_mean        =   0.0000000000000E+00
(PID.TID 0000.0001) %MON ad_dynstat_adsst_sd          =   0.0000000000000E+00
(PID.TID 0000.0001) %MON ad_dynstat_adsst_del2        =   0.0000000000000E+00
(PID.TID 0000.0001) %MON ad_dynstat_adsss_max         =   0.0000000000000E+00
(PID.TID 0000.0001) %MON ad_dynstat_adsss_min         =   0.0000000000000E+00
(PID.TID 0000.0001) %MON ad_dynstat_adsss_mean        =   0.0000000000000E+00
(PID.TID 0000.0001) %MON ad_dynstat_adsss_sd          =   0.0000000000000E+00
(PID.TID 0000.0001) %MON ad_dynstat_adsss_del2        =   0.0000000000000E+00
(PID.TID 0000.0001) %MON ad_forcing_adqnet_max        =   0.0000000000000E+00
(PID.TID 0000.0001) %MON ad_forcing_adqnet_min        =   0.0000000000000E+00
(PID.TID 0000.0001) %MON ad_forcing_adqnet_mean       =   0.0000000000000E+00
(PID.TID 0000.0001) %MON ad_forcing_adqnet_sd         =   0.0000000000000E+00
(PID.TID 0000.0001) %MON ad_forcing_adqnet_del2       =   0.0000000000000E+00
(PID.TID 0000.0001) %MON ad_forcing_adempmr_max       =   0.0000000000000E+00
(PID.TID 0000.0001) %MON ad_forcing_adempmr_min       =   0.0000000000000E+00
(PID.TID 0000.0001) %MON ad_forcing_adempmr_mean      =   0.0000000000000E+00
(PID.TID 0000.0001) %MON ad_forcing_adempmr_sd        =   0.0000000000000E+00
(PID.TID 0000.0001) %MON ad_forcing_adempmr_del2      =   0.0000000000000E+00
(PID.TID 0000.0001) %MON ad_forcing_adfu_max          =   0.0000000000000E+00
(PID.TID 0000.0001) %MON ad_forcing_adfu_min          =   0.0000000000000E+00
(PID.TID 0000.0001) %MON ad_forcing_adfu_mean         =   0.0000000000000E+00
(PID.TID 0000.0001) %MON ad_forcing_adfu_sd           =   0.0000000000000E+00
(PID.TID 0000.0001) %MON ad_forcing_adfu_del2         =   0.0000000000000E+00
(PID.TID 0000.0001) %MON ad_forcing_adfv_max          =   0.0000000000000E+00
(PID.TID 0000.0001) %MON ad_forcing_adfv_min          =   0.0000000000000E+00
(PID.TID 0000.0001) %MON ad_forcing_adfv_mean         =   0.0000000000000E+00
(PID.TID 0000.0001) %MON ad_forcing_adfv_sd           =   0.0000000000000E+00
(PID.TID 0000.0001) %MON ad_forcing_adfv_del2         =   0.0000000000000E+00
(PID.TID 0000.0001) %MON ad_advcfl_aduvel_max         =   1.6361880775741E-04
(PID.TID 0000.0001) %MON ad_advcfl_advvel_max         =   3.3924691629273E-04
(PID.TID 0000.0001) %MON ad_advcfl_adwvel_max         =   6.5646965047890E-02
(PID.TID 0000.0001) %MON ad_advcfl_adW_hf_max         =   5.2463669235622E-01
(PID.TID 0000.0001) // =======================================================
(PID.TID 0000.0001) // End MONITOR dynamic field statistics
(PID.TID 0000.0001) // =======================================================
 cg2d: Sum(rhs),rhsMax =  -2.36356073601840E-15  7.54609996613258E-04
 cg2d: Sum(rhs),rhsMax =   7.19394379136706E-13  5.84578192080007E-02
 cg2d: Sum(rhs),rhsMax =   7.18592313474556E-13  5.85316038703550E-02
 cg2d: Sum(rhs),rhsMax =   7.18592313474556E-13  5.85316038703550E-02
(PID.TID 0000.0001) // =======================================================
(PID.TID 0000.0001) // Begin MONITOR dynamic field statistics
(PID.TID 0000.0001) // =======================================================
(PID.TID 0000.0001) %MON ad_time_tsnumber             =                  8648
(PID.TID 0000.0001) %MON ad_time_secondsf             =   1.5566400000000E+07
(PID.TID 0000.0001) %MON ad_dynstat_adeta_max         =   2.4396872745567E-02
(PID.TID 0000.0001) %MON ad_dynstat_adeta_min         =  -3.8841670558300E-02
(PID.TID 0000.0001) %MON ad_dynstat_adeta_mean        =  -1.3169023372713E-05
(PID.TID 0000.0001) %MON ad_dynstat_adeta_sd          =   4.3708622216872E-03
(PID.TID 0000.0001) %MON ad_dynstat_adeta_del2        =   6.4894053733871E-05
(PID.TID 0000.0001) %MON ad_dynstat_aduvel_max        =   5.0950207409271E-04
(PID.TID 0000.0001) %MON ad_dynstat_aduvel_min        =  -9.8405222955300E-04
(PID.TID 0000.0001) %MON ad_dynstat_aduvel_mean       =  -1.3012963602601E-04
(PID.TID 0000.0001) %MON ad_dynstat_aduvel_sd         =   7.3847781892330E-05
(PID.TID 0000.0001) %MON ad_dynstat_aduvel_del2       =   5.8497020484800E-08
(PID.TID 0000.0001) %MON ad_dynstat_advvel_max        =   1.6752966409532E-03
(PID.TID 0000.0001) %MON ad_dynstat_advvel_min        =  -3.2502973095604E-03
(PID.TID 0000.0001) %MON ad_dynstat_advvel_mean       =   6.4891252660928E-04
(PID.TID 0000.0001) %MON ad_dynstat_advvel_sd         =   4.3446212905585E-04
(PID.TID 0000.0001) %MON ad_dynstat_advvel_del2       =   7.5024255656749E-07
(PID.TID 0000.0001) %MON ad_dynstat_adwvel_max        =   6.7969738662086E-04
(PID.TID 0000.0001) %MON ad_dynstat_adwvel_min        =  -1.1513377299560E-03
(PID.TID 0000.0001) %MON ad_dynstat_adwvel_mean       =  -1.6679469118397E-06
(PID.TID 0000.0001) %MON ad_dynstat_adwvel_sd         =   1.7838319212757E-05
(PID.TID 0000.0001) %MON ad_dynstat_adwvel_del2       =   1.3453588387101E-07
(PID.TID 0000.0001) %MON ad_dynstat_adtheta_max       =  -3.7831816999125E+00
(PID.TID 0000.0001) %MON ad_dynstat_adtheta_min       =  -4.0250627777965E+00
(PID.TID 0000.0001) %MON ad_dynstat_adtheta_mean      =  -3.8254695495577E+00
(PID.TID 0000.0001) %MON ad_dynstat_adtheta_sd        =   5.4400301762699E-02
(PID.TID 0000.0001) %MON ad_dynstat_adtheta_del2      =   2.3148812146260E-05
(PID.TID 0000.0001) %MON ad_dynstat_adsalt_max        =   6.2726825476149E-03
(PID.TID 0000.0001) %MON ad_dynstat_adsalt_min        =  -6.6378064230764E-04
(PID.TID 0000.0001) %MON ad_dynstat_adsalt_mean       =   2.0509025234558E-04
(PID.TID 0000.0001) %MON ad_dynstat_adsalt_sd         =   8.7389562232781E-04
(PID.TID 0000.0001) %MON ad_dynstat_adsalt_del2       =   1.4222021106485E-06
(PID.TID 0000.0001) %MON ad_dynstat_adsst_max         =   0.0000000000000E+00
(PID.TID 0000.0001) %MON ad_dynstat_adsst_min         =   0.0000000000000E+00
(PID.TID 0000.0001) %MON ad_dynstat_adsst_mean        =   0.0000000000000E+00
(PID.TID 0000.0001) %MON ad_dynstat_adsst_sd          =   0.0000000000000E+00
(PID.TID 0000.0001) %MON ad_dynstat_adsst_del2        =   0.0000000000000E+00
(PID.TID 0000.0001) %MON ad_dynstat_adsss_max         =   0.0000000000000E+00
(PID.TID 0000.0001) %MON ad_dynstat_adsss_min         =   0.0000000000000E+00
(PID.TID 0000.0001) %MON ad_dynstat_adsss_mean        =   0.0000000000000E+00
(PID.TID 0000.0001) %MON ad_dynstat_adsss_sd          =   0.0000000000000E+00
(PID.TID 0000.0001) %MON ad_dynstat_adsss_del2        =   0.0000000000000E+00
(PID.TID 0000.0001) %MON ad_forcing_adqnet_max        =   0.0000000000000E+00
(PID.TID 0000.0001) %MON ad_forcing_adqnet_min        =   0.0000000000000E+00
(PID.TID 0000.0001) %MON ad_forcing_adqnet_mean       =   0.0000000000000E+00
(PID.TID 0000.0001) %MON ad_forcing_adqnet_sd         =   0.0000000000000E+00
(PID.TID 0000.0001) %MON ad_forcing_adqnet_del2       =   0.0000000000000E+00
(PID.TID 0000.0001) %MON ad_forcing_adempmr_max       =   0.0000000000000E+00
(PID.TID 0000.0001) %MON ad_forcing_adempmr_min       =   0.0000000000000E+00
(PID.TID 0000.0001) %MON ad_forcing_adempmr_mean      =   0.0000000000000E+00
(PID.TID 0000.0001) %MON ad_forcing_adempmr_sd        =   0.0000000000000E+00
(PID.TID 0000.0001) %MON ad_forcing_adempmr_del2      =   0.0000000000000E+00
(PID.TID 0000.0001) %MON ad_forcing_adfu_max          =   0.0000000000000E+00
(PID.TID 0000.0001) %MON ad_forcing_adfu_min          =   0.0000000000000E+00
(PID.TID 0000.0001) %MON ad_forcing_adfu_mean         =   0.0000000000000E+00
(PID.TID 0000.0001) %MON ad_forcing_adfu_sd           =   0.0000000000000E+00
(PID.TID 0000.0001) %MON ad_forcing_adfu_del2         =   0.0000000000000E+00
(PID.TID 0000.0001) %MON ad_forcing_adfv_max          =   0.0000000000000E+00
(PID.TID 0000.0001) %MON ad_forcing_adfv_min          =   0.0000000000000E+00
(PID.TID 0000.0001) %MON ad_forcing_adfv_mean         =   0.0000000000000E+00
(PID.TID 0000.0001) %MON ad_forcing_adfv_sd           =   0.0000000000000E+00
(PID.TID 0000.0001) %MON ad_forcing_adfv_del2         =   0.0000000000000E+00
(PID.TID 0000.0001) %MON ad_advcfl_aduvel_max         =   2.4440486211458E-04
(PID.TID 0000.0001) %MON ad_advcfl_advvel_max         =   5.2623386562162E-04
(PID.TID 0000.0001) %MON ad_advcfl_adwvel_max         =   6.9080263797363E-02
(PID.TID 0000.0001) %MON ad_advcfl_adW_hf_max         =   5.5206419005211E-01
(PID.TID 0000.0001) // =======================================================
(PID.TID 0000.0001) // End MONITOR dynamic field statistics
(PID.TID 0000.0001) // =======================================================
 cg2d: Sum(rhs),rhsMax =  -1.16399945238044E-15  1.37924390172736E-03
 cg2d: Sum(rhs),rhsMax =   7.19394379136706E-13  5.84578192080007E-02
(PID.TID 0000.0001) // =======================================================
(PID.TID 0000.0001) // Begin MONITOR dynamic field statistics
(PID.TID 0000.0001) // =======================================================
(PID.TID 0000.0001) %MON ad_time_tsnumber             =                  8647
(PID.TID 0000.0001) %MON ad_time_secondsf             =   1.5564600000000E+07
(PID.TID 0000.0001) %MON ad_dynstat_adeta_max         =   3.3284128997417E-02
(PID.TID 0000.0001) %MON ad_dynstat_adeta_min         =  -5.3793938205845E-02
(PID.TID 0000.0001) %MON ad_dynstat_adeta_mean        =  -4.1017499218236E-05
(PID.TID 0000.0001) %MON ad_dynstat_adeta_sd          =   6.0476404880606E-03
(PID.TID 0000.0001) %MON ad_dynstat_adeta_del2        =   8.9045595382094E-05
(PID.TID 0000.0001) %MON ad_dynstat_aduvel_max        =   6.2224048901990E-04
(PID.TID 0000.0001) %MON ad_dynstat_aduvel_min        =  -1.1686643989246E-03
(PID.TID 0000.0001) %MON ad_dynstat_aduvel_mean       =  -3.2309490140998E-04
(PID.TID 0000.0001) %MON ad_dynstat_aduvel_sd         =   1.4740580242229E-04
(PID.TID 0000.0001) %MON ad_dynstat_aduvel_del2       =   8.5570153029039E-08
(PID.TID 0000.0001) %MON ad_dynstat_advvel_max        =   1.5689726530118E-03
(PID.TID 0000.0001) %MON ad_dynstat_advvel_min        =  -3.9478688808868E-03
(PID.TID 0000.0001) %MON ad_dynstat_advvel_mean       =   5.8403994347377E-04
(PID.TID 0000.0001) %MON ad_dynstat_advvel_sd         =   4.4599503756001E-04
(PID.TID 0000.0001) %MON ad_dynstat_advvel_del2       =   8.1126970971029E-07
(PID.TID 0000.0001) %MON ad_dynstat_adwvel_max        =   6.3921724716298E-04
(PID.TID 0000.0001) %MON ad_dynstat_adwvel_min        =  -1.4139228912905E-03
(PID.TID 0000.0001) %MON ad_dynstat_adwvel_mean       =  -3.1675827532074E-06
(PID.TID 0000.0001) %MON ad_dynstat_adwvel_sd         =   2.8307977494873E-05
(PID.TID 0000.0001) %MON ad_dynstat_adwvel_del2       =   2.2981857573797E-07
(PID.TID 0000.0001) %MON ad_dynstat_adtheta_max       =  -3.7834189360853E+00
(PID.TID 0000.0001) %MON ad_dynstat_adtheta_min       =  -4.0153381775225E+00
(PID.TID 0000.0001) %MON ad_dynstat_adtheta_mean      =  -3.8240739300041E+00
(PID.TID 0000.0001) %MON ad_dynstat_adtheta_sd        =   5.1484232644418E-02
(PID.TID 0000.0001) %MON ad_dynstat_adtheta_del2      =   2.9993816743575E-05
(PID.TID 0000.0001) %MON ad_dynstat_adsalt_max        =   8.6684297974563E-03
(PID.TID 0000.0001) %MON ad_dynstat_adsalt_min        =  -9.3466401211997E-04
(PID.TID 0000.0001) %MON ad_dynstat_adsalt_mean       =   2.8087058516798E-04
(PID.TID 0000.0001) %MON ad_dynstat_adsalt_sd         =   1.2072601706202E-03
(PID.TID 0000.0001) %MON ad_dynstat_adsalt_del2       =   1.9713359289269E-06
(PID.TID 0000.0001) %MON ad_dynstat_adsst_max         =   0.0000000000000E+00
(PID.TID 0000.0001) %MON ad_dynstat_adsst_min         =   0.0000000000000E+00
(PID.TID 0000.0001) %MON ad_dynstat_adsst_mean        =   0.0000000000000E+00
(PID.TID 0000.0001) %MON ad_dynstat_adsst_sd          =   0.0000000000000E+00
(PID.TID 0000.0001) %MON ad_dynstat_adsst_del2        =   0.0000000000000E+00
(PID.TID 0000.0001) %MON ad_dynstat_adsss_max         =   0.0000000000000E+00
(PID.TID 0000.0001) %MON ad_dynstat_adsss_min         =   0.0000000000000E+00
(PID.TID 0000.0001) %MON ad_dynstat_adsss_mean        =   0.0000000000000E+00
(PID.TID 0000.0001) %MON ad_dynstat_adsss_sd          =   0.0000000000000E+00
(PID.TID 0000.0001) %MON ad_dynstat_adsss_del2        =   0.0000000000000E+00
(PID.TID 0000.0001) %MON ad_forcing_adqnet_max        =   0.0000000000000E+00
(PID.TID 0000.0001) %MON ad_forcing_adqnet_min        =   0.0000000000000E+00
(PID.TID 0000.0001) %MON ad_forcing_adqnet_mean       =   0.0000000000000E+00
(PID.TID 0000.0001) %MON ad_forcing_adqnet_sd         =   0.0000000000000E+00
(PID.TID 0000.0001) %MON ad_forcing_adqnet_del2       =   0.0000000000000E+00
(PID.TID 0000.0001) %MON ad_forcing_adempmr_max       =   0.0000000000000E+00
(PID.TID 0000.0001) %MON ad_forcing_adempmr_min       =   0.0000000000000E+00
(PID.TID 0000.0001) %MON ad_forcing_adempmr_mean      =   0.0000000000000E+00
(PID.TID 0000.0001) %MON ad_forcing_adempmr_sd        =   0.0000000000000E+00
(PID.TID 0000.0001) %MON ad_forcing_adempmr_del2      =   0.0000000000000E+00
(PID.TID 0000.0001) %MON ad_forcing_adfu_max          =   0.0000000000000E+00
(PID.TID 0000.0001) %MON ad_forcing_adfu_min          =   0.0000000000000E+00
(PID.TID 0000.0001) %MON ad_forcing_adfu_mean         =   0.0000000000000E+00
(PID.TID 0000.0001) %MON ad_forcing_adfu_sd           =   0.0000000000000E+00
(PID.TID 0000.0001) %MON ad_forcing_adfu_del2         =   0.0000000000000E+00
(PID.TID 0000.0001) %MON ad_forcing_adfv_max          =   0.0000000000000E+00
(PID.TID 0000.0001) %MON ad_forcing_adfv_min          =   0.0000000000000E+00
(PID.TID 0000.0001) %MON ad_forcing_adfv_mean         =   0.0000000000000E+00
(PID.TID 0000.0001) %MON ad_forcing_adfv_sd           =   0.0000000000000E+00
(PID.TID 0000.0001) %MON ad_forcing_adfv_del2         =   0.0000000000000E+00
(PID.TID 0000.0001) %MON ad_advcfl_aduvel_max         =   3.0216025408307E-04
(PID.TID 0000.0001) %MON ad_advcfl_advvel_max         =   6.3917300612642E-04
(PID.TID 0000.0001) %MON ad_advcfl_adwvel_max         =   8.4835373477431E-02
(PID.TID 0000.0001) %MON ad_advcfl_adW_hf_max         =   6.7795307197583E-01
(PID.TID 0000.0001) // =======================================================
(PID.TID 0000.0001) // End MONITOR dynamic field statistics
(PID.TID 0000.0001) // =======================================================
 cg2d: Sum(rhs),rhsMax =  -1.59941504485062E-15  1.94452069775905E-03
 cg2d: Sum(rhs),rhsMax =   7.19141570295137E-13  5.83931392123464E-02
 cg2d: Sum(rhs),rhsMax =   7.17101223779264E-13  5.83957488429974E-02
 cg2d: Sum(rhs),rhsMax =   7.17101223779264E-13  5.83957488429974E-02
(PID.TID 0000.0001) // =======================================================
(PID.TID 0000.0001) // Begin MONITOR dynamic field statistics
(PID.TID 0000.0001) // =======================================================
(PID.TID 0000.0001) %MON ad_time_tsnumber             =                  8646
(PID.TID 0000.0001) %MON ad_time_secondsf             =   1.5562800000000E+07
(PID.TID 0000.0001) %MON ad_dynstat_adeta_max         =   3.7795798397741E-02
(PID.TID 0000.0001) %MON ad_dynstat_adeta_min         =  -6.2906593405972E-02
(PID.TID 0000.0001) %MON ad_dynstat_adeta_mean        =  -8.1018659088049E-05
(PID.TID 0000.0001) %MON ad_dynstat_adeta_sd          =   7.0553674746155E-03
(PID.TID 0000.0001) %MON ad_dynstat_adeta_del2        =   1.0315337439540E-04
(PID.TID 0000.0001) %MON ad_dynstat_aduvel_max        =   6.9212570153182E-04
(PID.TID 0000.0001) %MON ad_dynstat_aduvel_min        =  -1.4812320987973E-03
(PID.TID 0000.0001) %MON ad_dynstat_aduvel_mean       =  -5.0611876712921E-04
(PID.TID 0000.0001) %MON ad_dynstat_aduvel_sd         =   2.0222306371058E-04
(PID.TID 0000.0001) %MON ad_dynstat_aduvel_del2       =   1.1039999718977E-07
(PID.TID 0000.0001) %MON ad_dynstat_advvel_max        =   1.3312654541631E-03
(PID.TID 0000.0001) %MON ad_dynstat_advvel_min        =  -4.1323301724130E-03
(PID.TID 0000.0001) %MON ad_dynstat_advvel_mean       =   3.7251822758177E-04
(PID.TID 0000.0001) %MON ad_dynstat_advvel_sd         =   4.1790453218033E-04
(PID.TID 0000.0001) %MON ad_dynstat_advvel_del2       =   7.6456660698050E-07
(PID.TID 0000.0001) %MON ad_dynstat_adwvel_max        =   7.2115151334746E-04
(PID.TID 0000.0001) %MON ad_dynstat_adwvel_min        =  -1.5066883412540E-03
(PID.TID 0000.0001) %MON ad_dynstat_adwvel_mean       =  -4.6730917483288E-06
(PID.TID 0000.0001) %MON ad_dynstat_adwvel_sd         =   4.0799909204458E-05
(PID.TID 0000.0001) %MON ad_dynstat_adwvel_del2       =   3.1386065036320E-07
(PID.TID 0000.0001) %MON ad_dynstat_adtheta_max       =  -3.7835846618198E+00
(PID.TID 0000.0001) %MON ad_dynstat_adtheta_min       =  -4.0056062053939E+00
(PID.TID 0000.0001) %MON ad_dynstat_adtheta_mean      =  -3.8226853091327E+00
(PID.TID 0000.0001) %MON ad_dynstat_adtheta_sd        =   4.9033538821391E-02
(PID.TID 0000.0001) %MON ad_dynstat_adtheta_del2      =   3.7134775808394E-05
(PID.TID 0000.0001) %MON ad_dynstat_adsalt_max        =   1.1057637263342E-02
(PID.TID 0000.0001) %MON ad_dynstat_adsalt_min        =  -1.1838109027994E-03
(PID.TID 0000.0001) %MON ad_dynstat_adsalt_mean       =   3.5687861187484E-04
(PID.TID 0000.0001) %MON ad_dynstat_adsalt_sd         =   1.5390770361330E-03
(PID.TID 0000.0001) %MON ad_dynstat_adsalt_del2       =   2.5159670080526E-06
(PID.TID 0000.0001) %MON ad_dynstat_adsst_max         =   0.0000000000000E+00
(PID.TID 0000.0001) %MON ad_dynstat_adsst_min         =   0.0000000000000E+00
(PID.TID 0000.0001) %MON ad_dynstat_adsst_mean        =   0.0000000000000E+00
(PID.TID 0000.0001) %MON ad_dynstat_adsst_sd          =   0.0000000000000E+00
(PID.TID 0000.0001) %MON ad_dynstat_adsst_del2        =   0.0000000000000E+00
(PID.TID 0000.0001) %MON ad_dynstat_adsss_max         =   0.0000000000000E+00
(PID.TID 0000.0001) %MON ad_dynstat_adsss_min         =   0.0000000000000E+00
(PID.TID 0000.0001) %MON ad_dynstat_adsss_mean        =   0.0000000000000E+00
(PID.TID 0000.0001) %MON ad_dynstat_adsss_sd          =   0.0000000000000E+00
(PID.TID 0000.0001) %MON ad_dynstat_adsss_del2        =   0.0000000000000E+00
(PID.TID 0000.0001) %MON ad_forcing_adqnet_max        =   0.0000000000000E+00
(PID.TID 0000.0001) %MON ad_forcing_adqnet_min        =   0.0000000000000E+00
(PID.TID 0000.0001) %MON ad_forcing_adqnet_mean       =   0.0000000000000E+00
(PID.TID 0000.0001) %MON ad_forcing_adqnet_sd         =   0.0000000000000E+00
(PID.TID 0000.0001) %MON ad_forcing_adqnet_del2       =   0.0000000000000E+00
(PID.TID 0000.0001) %MON ad_forcing_adempmr_max       =   0.0000000000000E+00
(PID.TID 0000.0001) %MON ad_forcing_adempmr_min       =   0.0000000000000E+00
(PID.TID 0000.0001) %MON ad_forcing_adempmr_mean      =   0.0000000000000E+00
(PID.TID 0000.0001) %MON ad_forcing_adempmr_sd        =   0.0000000000000E+00
(PID.TID 0000.0001) %MON ad_forcing_adempmr_del2      =   0.0000000000000E+00
(PID.TID 0000.0001) %MON ad_forcing_adfu_max          =   0.0000000000000E+00
(PID.TID 0000.0001) %MON ad_forcing_adfu_min          =   0.0000000000000E+00
(PID.TID 0000.0001) %MON ad_forcing_adfu_mean         =   0.0000000000000E+00
(PID.TID 0000.0001) %MON ad_forcing_adfu_sd           =   0.0000000000000E+00
(PID.TID 0000.0001) %MON ad_forcing_adfu_del2         =   0.0000000000000E+00
(PID.TID 0000.0001) %MON ad_forcing_adfv_max          =   0.0000000000000E+00
(PID.TID 0000.0001) %MON ad_forcing_adfv_min          =   0.0000000000000E+00
(PID.TID 0000.0001) %MON ad_forcing_adfv_mean         =   0.0000000000000E+00
(PID.TID 0000.0001) %MON ad_forcing_adfv_sd           =   0.0000000000000E+00
(PID.TID 0000.0001) %MON ad_forcing_adfv_del2         =   0.0000000000000E+00
(PID.TID 0000.0001) %MON ad_advcfl_aduvel_max         =   3.9924877499145E-04
(PID.TID 0000.0001) %MON ad_advcfl_advvel_max         =   6.6903789824317E-04
(PID.TID 0000.0001) %MON ad_advcfl_adwvel_max         =   9.0401300475239E-02
(PID.TID 0000.0001) %MON ad_advcfl_adW_hf_max         =   7.2133200348021E-01
(PID.TID 0000.0001) // =======================================================
(PID.TID 0000.0001) // End MONITOR dynamic field statistics
(PID.TID 0000.0001) // =======================================================
 cg2d: Sum(rhs),rhsMax =  -1.11716191852906E-15  2.30640075181474E-03
 cg2d: Sum(rhs),rhsMax =   7.19141570295137E-13  5.83931392123464E-02
(PID.TID 0000.0001) // =======================================================
(PID.TID 0000.0001) // Begin MONITOR dynamic field statistics
(PID.TID 0000.0001) // =======================================================
(PID.TID 0000.0001) %MON ad_time_tsnumber             =                  8645
(PID.TID 0000.0001) %MON ad_time_secondsf             =   1.5561000000000E+07
(PID.TID 0000.0001) %MON ad_dynstat_adeta_max         =   3.6130059159168E-02
(PID.TID 0000.0001) %MON ad_dynstat_adeta_min         =  -6.4062713277725E-02
(PID.TID 0000.0001) %MON ad_dynstat_adeta_mean        =  -1.2666057392974E-04
(PID.TID 0000.0001) %MON ad_dynstat_adeta_sd          =   7.2217859269686E-03
(PID.TID 0000.0001) %MON ad_dynstat_adeta_del2        =   1.0497717660614E-04
(PID.TID 0000.0001) %MON ad_dynstat_aduvel_max        =   7.2046096535629E-04
(PID.TID 0000.0001) %MON ad_dynstat_aduvel_min        =  -1.6761849231824E-03
(PID.TID 0000.0001) %MON ad_dynstat_aduvel_mean       =  -6.1243286738719E-04
(PID.TID 0000.0001) %MON ad_dynstat_aduvel_sd         =   2.2094346806930E-04
(PID.TID 0000.0001) %MON ad_dynstat_aduvel_del2       =   1.2671067385766E-07
(PID.TID 0000.0001) %MON ad_dynstat_advvel_max        =   1.0062832598925E-03
(PID.TID 0000.0001) %MON ad_dynstat_advvel_min        =  -3.8550227130368E-03
(PID.TID 0000.0001) %MON ad_dynstat_advvel_mean       =   5.2395987783252E-05
(PID.TID 0000.0001) %MON ad_dynstat_advvel_sd         =   3.8404507665353E-04
(PID.TID 0000.0001) %MON ad_dynstat_advvel_del2       =   6.2801936226926E-07
(PID.TID 0000.0001) %MON ad_dynstat_adwvel_max        =   8.2395026794479E-04
(PID.TID 0000.0001) %MON ad_dynstat_adwvel_min        =  -1.4673111166151E-03
(PID.TID 0000.0001) %MON ad_dynstat_adwvel_mean       =  -5.8931666824492E-06
(PID.TID 0000.0001) %MON ad_dynstat_adwvel_sd         =   5.1663645341879E-05
(PID.TID 0000.0001) %MON ad_dynstat_adwvel_del2       =   3.7416938130063E-07
(PID.TID 0000.0001) %MON ad_dynstat_adtheta_max       =  -3.7836901878276E+00
(PID.TID 0000.0001) %MON ad_dynstat_adtheta_min       =  -4.0012702611412E+00
(PID.TID 0000.0001) %MON ad_dynstat_adtheta_mean      =  -3.8213036608442E+00
(PID.TID 0000.0001) %MON ad_dynstat_adtheta_sd        =   4.7110539897997E-02
(PID.TID 0000.0001) %MON ad_dynstat_adtheta_del2      =   4.4392299985641E-05
(PID.TID 0000.0001) %MON ad_dynstat_adsalt_max        =   1.3433409566708E-02
(PID.TID 0000.0001) %MON ad_dynstat_adsalt_min        =  -1.4767461223557E-03
(PID.TID 0000.0001) %MON ad_dynstat_adsalt_mean       =   4.3367861004896E-04
(PID.TID 0000.0001) %MON ad_dynstat_adsalt_sd         =   1.8691270667879E-03
(PID.TID 0000.0001) %MON ad_dynstat_adsalt_del2       =   3.0493620780485E-06
(PID.TID 0000.0001) %MON ad_dynstat_adsst_max         =   0.0000000000000E+00
(PID.TID 0000.0001) %MON ad_dynstat_adsst_min         =   0.0000000000000E+00
(PID.TID 0000.0001) %MON ad_dynstat_adsst_mean        =   0.0000000000000E+00
(PID.TID 0000.0001) %MON ad_dynstat_adsst_sd          =   0.0000000000000E+00
(PID.TID 0000.0001) %MON ad_dynstat_adsst_del2        =   0.0000000000000E+00
(PID.TID 0000.0001) %MON ad_dynstat_adsss_max         =   0.0000000000000E+00
(PID.TID 0000.0001) %MON ad_dynstat_adsss_min         =   0.0000000000000E+00
(PID.TID 0000.0001) %MON ad_dynstat_adsss_mean        =   0.0000000000000E+00
(PID.TID 0000.0001) %MON ad_dynstat_adsss_sd          =   0.0000000000000E+00
(PID.TID 0000.0001) %MON ad_dynstat_adsss_del2        =   0.0000000000000E+00
(PID.TID 0000.0001) %MON ad_forcing_adqnet_max        =   0.0000000000000E+00
(PID.TID 0000.0001) %MON ad_forcing_adqnet_min        =   0.0000000000000E+00
(PID.TID 0000.0001) %MON ad_forcing_adqnet_mean       =   0.0000000000000E+00
(PID.TID 0000.0001) %MON ad_forcing_adqnet_sd         =   0.0000000000000E+00
(PID.TID 0000.0001) %MON ad_forcing_adqnet_del2       =   0.0000000000000E+00
(PID.TID 0000.0001) %MON ad_forcing_adempmr_max       =   0.0000000000000E+00
(PID.TID 0000.0001) %MON ad_forcing_adempmr_min       =   0.0000000000000E+00
(PID.TID 0000.0001) %MON ad_forcing_adempmr_mean      =   0.0000000000000E+00
(PID.TID 0000.0001) %MON ad_forcing_adempmr_sd        =   0.0000000000000E+00
(PID.TID 0000.0001) %MON ad_forcing_adempmr_del2      =   0.0000000000000E+00
(PID.TID 0000.0001) %MON ad_forcing_adfu_max          =   0.0000000000000E+00
(PID.TID 0000.0001) %MON ad_forcing_adfu_min          =   0.0000000000000E+00
(PID.TID 0000.0001) %MON ad_forcing_adfu_mean         =   0.0000000000000E+00
(PID.TID 0000.0001) %MON ad_forcing_adfu_sd           =   0.0000000000000E+00
(PID.TID 0000.0001) %MON ad_forcing_adfu_del2         =   0.0000000000000E+00
(PID.TID 0000.0001) %MON ad_forcing_adfv_max          =   0.0000000000000E+00
(PID.TID 0000.0001) %MON ad_forcing_adfv_min          =   0.0000000000000E+00
(PID.TID 0000.0001) %MON ad_forcing_adfv_mean         =   0.0000000000000E+00
(PID.TID 0000.0001) %MON ad_forcing_adfv_sd           =   0.0000000000000E+00
(PID.TID 0000.0001) %MON ad_forcing_adfv_del2         =   0.0000000000000E+00
(PID.TID 0000.0001) %MON ad_advcfl_aduvel_max         =   4.5179602695831E-04
(PID.TID 0000.0001) %MON ad_advcfl_advvel_max         =   6.2414090500996E-04
(PID.TID 0000.0001) %MON ad_advcfl_adwvel_max         =   8.8038666996907E-02
(PID.TID 0000.0001) %MON ad_advcfl_adW_hf_max         =   7.0244566794398E-01
(PID.TID 0000.0001) // =======================================================
(PID.TID 0000.0001) // End MONITOR dynamic field statistics
(PID.TID 0000.0001) // =======================================================
 cg2d: Sum(rhs),rhsMax =   1.06512021424976E-15  2.38367724113721E-03
 cg2d: Sum(rhs),rhsMax =   7.16628470974479E-13  5.84668669787601E-02
 cg2d: Sum(rhs),rhsMax =   7.16416644975029E-13  5.84481243740208E-02
 cg2d: Sum(rhs),rhsMax =   7.16416644975029E-13  5.84481243740208E-02
(PID.TID 0000.0001) // =======================================================
(PID.TID 0000.0001) // Begin MONITOR dynamic field statistics
(PID.TID 0000.0001) // =======================================================
(PID.TID 0000.0001) %MON ad_time_tsnumber             =                  8644
(PID.TID 0000.0001) %MON ad_time_secondsf             =   1.5559200000000E+07
(PID.TID 0000.0001) %MON ad_dynstat_adeta_max         =   2.8073606090161E-02
(PID.TID 0000.0001) %MON ad_dynstat_adeta_min         =  -5.6669192112807E-02
(PID.TID 0000.0001) %MON ad_dynstat_adeta_mean        =  -1.7003862005738E-04
(PID.TID 0000.0001) %MON ad_dynstat_adeta_sd          =   6.5940188576651E-03
(PID.TID 0000.0001) %MON ad_dynstat_adeta_del2        =   9.5496986092735E-05
(PID.TID 0000.0001) %MON ad_dynstat_aduvel_max        =   7.1157732911481E-04
(PID.TID 0000.0001) %MON ad_dynstat_aduvel_min        =  -1.7116290320535E-03
(PID.TID 0000.0001) %MON ad_dynstat_aduvel_mean       =  -6.0394028606339E-04
(PID.TID 0000.0001) %MON ad_dynstat_aduvel_sd         =   2.0709748340858E-04
(PID.TID 0000.0001) %MON ad_dynstat_aduvel_del2       =   1.3359219709532E-07
(PID.TID 0000.0001) %MON ad_dynstat_advvel_max        =   6.3727601224813E-04
(PID.TID 0000.0001) %MON ad_dynstat_advvel_min        =  -3.1623218400235E-03
(PID.TID 0000.0001) %MON ad_dynstat_advvel_mean       =  -3.2143185530146E-04
(PID.TID 0000.0001) %MON ad_dynstat_advvel_sd         =   3.6590973886283E-04
(PID.TID 0000.0001) %MON ad_dynstat_advvel_del2       =   4.3570111131486E-07
(PID.TID 0000.0001) %MON ad_dynstat_adwvel_max        =   9.0799934213360E-04
(PID.TID 0000.0001) %MON ad_dynstat_adwvel_min        =  -1.3265974138160E-03
(PID.TID 0000.0001) %MON ad_dynstat_adwvel_mean       =  -6.7852740448923E-06
(PID.TID 0000.0001) %MON ad_dynstat_adwvel_sd         =   6.0265779872728E-05
(PID.TID 0000.0001) %MON ad_dynstat_adwvel_del2       =   4.1278489926880E-07
(PID.TID 0000.0001) %MON ad_dynstat_adtheta_max       =  -8.6097187804452E-01
(PID.TID 0000.0001) %MON ad_dynstat_adtheta_min       =  -6.8648490026870E+00
(PID.TID 0000.0001) %MON ad_dynstat_adtheta_mean      =  -3.8200058913176E+00
(PID.TID 0000.0001) %MON ad_dynstat_adtheta_sd        =   4.8929593942606E-02
(PID.TID 0000.0001) %MON ad_dynstat_adtheta_del2      =   1.4030170688228E-04
(PID.TID 0000.0001) %MON ad_dynstat_adsalt_max        =   1.5796396059590E-02
(PID.TID 0000.0001) %MON ad_dynstat_adsalt_min        =  -1.8508874034262E-03
(PID.TID 0000.0001) %MON ad_dynstat_adsalt_mean       =   5.1164893549815E-04
(PID.TID 0000.0001) %MON ad_dynstat_adsalt_sd         =   2.1972058850355E-03
(PID.TID 0000.0001) %MON ad_dynstat_adsalt_del2       =   3.5736968530789E-06
(PID.TID 0000.0001) %MON ad_dynstat_adsst_max         =   0.0000000000000E+00
(PID.TID 0000.0001) %MON ad_dynstat_adsst_min         =   0.0000000000000E+00
(PID.TID 0000.0001) %MON ad_dynstat_adsst_mean        =   0.0000000000000E+00
(PID.TID 0000.0001) %MON ad_dynstat_adsst_sd          =   0.0000000000000E+00
(PID.TID 0000.0001) %MON ad_dynstat_adsst_del2        =   0.0000000000000E+00
(PID.TID 0000.0001) %MON ad_dynstat_adsss_max         =   0.0000000000000E+00
(PID.TID 0000.0001) %MON ad_dynstat_adsss_min         =   0.0000000000000E+00
(PID.TID 0000.0001) %MON ad_dynstat_adsss_mean        =   0.0000000000000E+00
(PID.TID 0000.0001) %MON ad_dynstat_adsss_sd          =   0.0000000000000E+00
(PID.TID 0000.0001) %MON ad_dynstat_adsss_del2        =   0.0000000000000E+00
(PID.TID 0000.0001) %MON ad_forcing_adqnet_max        =   0.0000000000000E+00
(PID.TID 0000.0001) %MON ad_forcing_adqnet_min        =   0.0000000000000E+00
(PID.TID 0000.0001) %MON ad_forcing_adqnet_mean       =   0.0000000000000E+00
(PID.TID 0000.0001) %MON ad_forcing_adqnet_sd         =   0.0000000000000E+00
(PID.TID 0000.0001) %MON ad_forcing_adqnet_del2       =   0.0000000000000E+00
(PID.TID 0000.0001) %MON ad_forcing_adempmr_max       =   0.0000000000000E+00
(PID.TID 0000.0001) %MON ad_forcing_adempmr_min       =   0.0000000000000E+00
(PID.TID 0000.0001) %MON ad_forcing_adempmr_mean      =   0.0000000000000E+00
(PID.TID 0000.0001) %MON ad_forcing_adempmr_sd        =   0.0000000000000E+00
(PID.TID 0000.0001) %MON ad_forcing_adempmr_del2      =   0.0000000000000E+00
(PID.TID 0000.0001) %MON ad_forcing_adfu_max          =   0.0000000000000E+00
(PID.TID 0000.0001) %MON ad_forcing_adfu_min          =   0.0000000000000E+00
(PID.TID 0000.0001) %MON ad_forcing_adfu_mean         =   0.0000000000000E+00
(PID.TID 0000.0001) %MON ad_forcing_adfu_sd           =   0.0000000000000E+00
(PID.TID 0000.0001) %MON ad_forcing_adfu_del2         =   0.0000000000000E+00
(PID.TID 0000.0001) %MON ad_forcing_adfv_max          =   0.0000000000000E+00
(PID.TID 0000.0001) %MON ad_forcing_adfv_min          =   0.0000000000000E+00
(PID.TID 0000.0001) %MON ad_forcing_adfv_mean         =   0.0000000000000E+00
(PID.TID 0000.0001) %MON ad_forcing_adfv_sd           =   0.0000000000000E+00
(PID.TID 0000.0001) %MON ad_forcing_adfv_del2         =   0.0000000000000E+00
(PID.TID 0000.0001) %MON ad_advcfl_aduvel_max         =   4.6134957164515E-04
(PID.TID 0000.0001) %MON ad_advcfl_advvel_max         =   5.1199034664317E-04
(PID.TID 0000.0001) %MON ad_advcfl_adwvel_max         =   7.9595844828961E-02
(PID.TID 0000.0001) %MON ad_advcfl_adW_hf_max         =   6.1952003108017E-01
(PID.TID 0000.0001) // =======================================================
(PID.TID 0000.0001) // End MONITOR dynamic field statistics
(PID.TID 0000.0001) // =======================================================
 cg2d: Sum(rhs),rhsMax =  -9.64506252643105E-16  2.15542837830582E-03
 cg2d: Sum(rhs),rhsMax =   7.16628470974479E-13  5.84668669787601E-02
(PID.TID 0000.0001) // =======================================================
(PID.TID 0000.0001) // Begin MONITOR dynamic field statistics
(PID.TID 0000.0001) // =======================================================
(PID.TID 0000.0001) %MON ad_time_tsnumber             =                  8643
(PID.TID 0000.0001) %MON ad_time_secondsf             =   1.5557400000000E+07
(PID.TID 0000.0001) %MON ad_dynstat_adeta_max         =   1.4422801708990E-02
(PID.TID 0000.0001) %MON ad_dynstat_adeta_min         =  -4.1874778841404E-02
(PID.TID 0000.0001) %MON ad_dynstat_adeta_mean        =  -2.0374705054970E-04
(PID.TID 0000.0001) %MON ad_dynstat_adeta_sd          =   5.5616650107898E-03
(PID.TID 0000.0001) %MON ad_dynstat_adeta_del2        =   8.0705025197879E-05
(PID.TID 0000.0001) %MON ad_dynstat_aduvel_max        =   6.6563036547300E-04
(PID.TID 0000.0001) %MON ad_dynstat_aduvel_min        =  -1.6036350796055E-03
(PID.TID 0000.0001) %MON ad_dynstat_aduvel_mean       =  -4.7438198518922E-04
(PID.TID 0000.0001) %MON ad_dynstat_aduvel_sd         =   1.8125625291613E-04
(PID.TID 0000.0001) %MON ad_dynstat_aduvel_del2       =   1.3431384958846E-07
(PID.TID 0000.0001) %MON ad_dynstat_advvel_max        =   6.1110739231225E-04
(PID.TID 0000.0001) %MON ad_dynstat_advvel_min        =  -2.8778319153728E-03
(PID.TID 0000.0001) %MON ad_dynstat_advvel_mean       =  -6.8585777624699E-04
(PID.TID 0000.0001) %MON ad_dynstat_advvel_sd         =   3.6826200036140E-04
(PID.TID 0000.0001) %MON ad_dynstat_advvel_del2       =   2.8074705869112E-07
(PID.TID 0000.0001) %MON ad_dynstat_adwvel_max        =   9.6344509775029E-04
(PID.TID 0000.0001) %MON ad_dynstat_adwvel_min        =  -1.6140005678516E-03
(PID.TID 0000.0001) %MON ad_dynstat_adwvel_mean       =  -7.4261533697403E-06
(PID.TID 0000.0001) %MON ad_dynstat_adwvel_sd         =   6.6987587567915E-05
(PID.TID 0000.0001) %MON ad_dynstat_adwvel_del2       =   4.3651624484645E-07
(PID.TID 0000.0001) %MON ad_dynstat_adtheta_max       =  -6.9706941633848E-01
(PID.TID 0000.0001) %MON ad_dynstat_adtheta_min       =  -5.8373568971876E+00
(PID.TID 0000.0001) %MON ad_dynstat_adtheta_mean      =  -3.8186754488314E+00
(PID.TID 0000.0001) %MON ad_dynstat_adtheta_sd        =   4.8695998332911E-02
(PID.TID 0000.0001) %MON ad_dynstat_adtheta_del2      =   1.3954286131108E-04
(PID.TID 0000.0001) %MON ad_dynstat_adsalt_max        =   1.8146305266971E-02
(PID.TID 0000.0001) %MON ad_dynstat_adsalt_min        =  -2.2395871575180E-03
(PID.TID 0000.0001) %MON ad_dynstat_adsalt_mean       =   5.9095540371541E-04
(PID.TID 0000.0001) %MON ad_dynstat_adsalt_sd         =   2.5224804778102E-03
(PID.TID 0000.0001) %MON ad_dynstat_adsalt_del2       =   4.0733590233374E-06
(PID.TID 0000.0001) %MON ad_dynstat_adsst_max         =   0.0000000000000E+00
(PID.TID 0000.0001) %MON ad_dynstat_adsst_min         =   0.0000000000000E+00
(PID.TID 0000.0001) %MON ad_dynstat_adsst_mean        =   0.0000000000000E+00
(PID.TID 0000.0001) %MON ad_dynstat_adsst_sd          =   0.0000000000000E+00
(PID.TID 0000.0001) %MON ad_dynstat_adsst_del2        =   0.0000000000000E+00
(PID.TID 0000.0001) %MON ad_dynstat_adsss_max         =   0.0000000000000E+00
(PID.TID 0000.0001) %MON ad_dynstat_adsss_min         =   0.0000000000000E+00
(PID.TID 0000.0001) %MON ad_dynstat_adsss_mean        =   0.0000000000000E+00
(PID.TID 0000.0001) %MON ad_dynstat_adsss_sd          =   0.0000000000000E+00
(PID.TID 0000.0001) %MON ad_dynstat_adsss_del2        =   0.0000000000000E+00
(PID.TID 0000.0001) %MON ad_forcing_adqnet_max        =   0.0000000000000E+00
(PID.TID 0000.0001) %MON ad_forcing_adqnet_min        =   0.0000000000000E+00
(PID.TID 0000.0001) %MON ad_forcing_adqnet_mean       =   0.0000000000000E+00
(PID.TID 0000.0001) %MON ad_forcing_adqnet_sd         =   0.0000000000000E+00
(PID.TID 0000.0001) %MON ad_forcing_adqnet_del2       =   0.0000000000000E+00
(PID.TID 0000.0001) %MON ad_forcing_adempmr_max       =   0.0000000000000E+00
(PID.TID 0000.0001) %MON ad_forcing_adempmr_min       =   0.0000000000000E+00
(PID.TID 0000.0001) %MON ad_forcing_adempmr_mean      =   0.0000000000000E+00
(PID.TID 0000.0001) %MON ad_forcing_adempmr_sd        =   0.0000000000000E+00
(PID.TID 0000.0001) %MON ad_forcing_adempmr_del2      =   0.0000000000000E+00
(PID.TID 0000.0001) %MON ad_forcing_adfu_max          =   0.0000000000000E+00
(PID.TID 0000.0001) %MON ad_forcing_adfu_min          =   0.0000000000000E+00
(PID.TID 0000.0001) %MON ad_forcing_adfu_mean         =   0.0000000000000E+00
(PID.TID 0000.0001) %MON ad_forcing_adfu_sd           =   0.0000000000000E+00
(PID.TID 0000.0001) %MON ad_forcing_adfu_del2         =   0.0000000000000E+00
(PID.TID 0000.0001) %MON ad_forcing_adfv_max          =   0.0000000000000E+00
(PID.TID 0000.0001) %MON ad_forcing_adfv_min          =   0.0000000000000E+00
(PID.TID 0000.0001) %MON ad_forcing_adfv_mean         =   0.0000000000000E+00
(PID.TID 0000.0001) %MON ad_forcing_adfv_sd           =   0.0000000000000E+00
(PID.TID 0000.0001) %MON ad_forcing_adfv_del2         =   0.0000000000000E+00
(PID.TID 0000.0001) %MON ad_advcfl_aduvel_max         =   4.3224106578953E-04
(PID.TID 0000.0001) %MON ad_advcfl_advvel_max         =   4.6593048856835E-04
(PID.TID 0000.0001) %MON ad_advcfl_adwvel_max         =   9.6840034071094E-02
(PID.TID 0000.0001) %MON ad_advcfl_adW_hf_max         =   4.8528501068044E-01
(PID.TID 0000.0001) // =======================================================
(PID.TID 0000.0001) // End MONITOR dynamic field statistics
(PID.TID 0000.0001) // =======================================================
 cg2d: Sum(rhs),rhsMax =  -2.06085148946045E-15  1.67274582038357E-03
(PID.TID 0000.0001) SOLVE_FOR_PRESSURE: putPmEinXvector =    F
 cg2d: Sum(rhs),rhsMax =   7.04913205714849E-13  5.97849185308842E-02
 cg2d: Sum(rhs),rhsMax =   7.17390177210758E-13  5.85454507336924E-02
 cg2d: Sum(rhs),rhsMax =   7.17390177210758E-13  5.85454507336924E-02
(PID.TID 0000.0001) // =======================================================
(PID.TID 0000.0001) // Begin MONITOR dynamic field statistics
(PID.TID 0000.0001) // =======================================================
(PID.TID 0000.0001) %MON ad_time_tsnumber             =                  8642
(PID.TID 0000.0001) %MON ad_time_secondsf             =   1.5555600000000E+07
(PID.TID 0000.0001) %MON ad_dynstat_adeta_max         =   1.0820517644049E-02
(PID.TID 0000.0001) %MON ad_dynstat_adeta_min         =  -4.6524400109134E-02
(PID.TID 0000.0001) %MON ad_dynstat_adeta_mean        =  -2.2199404395559E-04
(PID.TID 0000.0001) %MON ad_dynstat_adeta_sd          =   5.0709347395596E-03
(PID.TID 0000.0001) %MON ad_dynstat_adeta_del2        =   7.4487510773990E-05
(PID.TID 0000.0001) %MON ad_dynstat_aduvel_max        =   6.6655367435932E-04
(PID.TID 0000.0001) %MON ad_dynstat_aduvel_min        =  -1.3783049645631E-03
(PID.TID 0000.0001) %MON ad_dynstat_aduvel_mean       =  -2.4218377428428E-04
(PID.TID 0000.0001) %MON ad_dynstat_aduvel_sd         =   1.7028056811851E-04
(PID.TID 0000.0001) %MON ad_dynstat_aduvel_del2       =   1.3389921584248E-07
(PID.TID 0000.0001) %MON ad_dynstat_advvel_max        =   1.0831498263992E-03
(PID.TID 0000.0001) %MON ad_dynstat_advvel_min        =  -2.6671841902356E-03
(PID.TID 0000.0001) %MON ad_dynstat_advvel_mean       =  -9.8091203573719E-04
(PID.TID 0000.0001) %MON ad_dynstat_advvel_sd         =   3.8484651175007E-04
(PID.TID 0000.0001) %MON ad_dynstat_advvel_del2       =   3.7213381355262E-07
(PID.TID 0000.0001) %MON ad_dynstat_adwvel_max        =   1.0131056192066E-03
(PID.TID 0000.0001) %MON ad_dynstat_adwvel_min        =  -1.8258845946141E-03
(PID.TID 0000.0001) %MON ad_dynstat_adwvel_mean       =  -7.8616731481553E-06
(PID.TID 0000.0001) %MON ad_dynstat_adwvel_sd         =   7.1857741656471E-05
(PID.TID 0000.0001) %MON ad_dynstat_adwvel_del2       =   4.4848726257597E-07
(PID.TID 0000.0001) %MON ad_dynstat_adtheta_max       =  -6.4245708862816E-01
(PID.TID 0000.0001) %MON ad_dynstat_adtheta_min       =  -6.7821512677375E+00
(PID.TID 0000.0001) %MON ad_dynstat_adtheta_mean      =  -3.8175199893327E+00
(PID.TID 0000.0001) %MON ad_dynstat_adtheta_sd        =   5.5389363756638E-02
(PID.TID 0000.0001) %MON ad_dynstat_adtheta_del2      =   2.1966808647955E-04
(PID.TID 0000.0001) %MON ad_dynstat_adsalt_max        =   2.0480221668818E-02
(PID.TID 0000.0001) %MON ad_dynstat_adsalt_min        =  -2.8876255033578E-03
(PID.TID 0000.0001) %MON ad_dynstat_adsalt_mean       =   6.7160486935587E-04
(PID.TID 0000.0001) %MON ad_dynstat_adsalt_sd         =   2.8462745934476E-03
(PID.TID 0000.0001) %MON ad_dynstat_adsalt_del2       =   4.5575813007249E-06
(PID.TID 0000.0001) %MON ad_dynstat_adsst_max         =   0.0000000000000E+00
(PID.TID 0000.0001) %MON ad_dynstat_adsst_min         =   0.0000000000000E+00
(PID.TID 0000.0001) %MON ad_dynstat_adsst_mean        =   0.0000000000000E+00
(PID.TID 0000.0001) %MON ad_dynstat_adsst_sd          =   0.0000000000000E+00
(PID.TID 0000.0001) %MON ad_dynstat_adsst_del2        =   0.0000000000000E+00
(PID.TID 0000.0001) %MON ad_dynstat_adsss_max         =   0.0000000000000E+00
(PID.TID 0000.0001) %MON ad_dynstat_adsss_min         =   0.0000000000000E+00
(PID.TID 0000.0001) %MON ad_dynstat_adsss_mean        =   0.0000000000000E+00
(PID.TID 0000.0001) %MON ad_dynstat_adsss_sd          =   0.0000000000000E+00
(PID.TID 0000.0001) %MON ad_dynstat_adsss_del2        =   0.0000000000000E+00
(PID.TID 0000.0001) %MON ad_forcing_adqnet_max        =   0.0000000000000E+00
(PID.TID 0000.0001) %MON ad_forcing_adqnet_min        =   0.0000000000000E+00
(PID.TID 0000.0001) %MON ad_forcing_adqnet_mean       =   0.0000000000000E+00
(PID.TID 0000.0001) %MON ad_forcing_adqnet_sd         =   0.0000000000000E+00
(PID.TID 0000.0001) %MON ad_forcing_adqnet_del2       =   0.0000000000000E+00
(PID.TID 0000.0001) %MON ad_forcing_adempmr_max       =   0.0000000000000E+00
(PID.TID 0000.0001) %MON ad_forcing_adempmr_min       =   0.0000000000000E+00
(PID.TID 0000.0001) %MON ad_forcing_adempmr_mean      =   0.0000000000000E+00
(PID.TID 0000.0001) %MON ad_forcing_adempmr_sd        =   0.0000000000000E+00
(PID.TID 0000.0001) %MON ad_forcing_adempmr_del2      =   0.0000000000000E+00
(PID.TID 0000.0001) %MON ad_forcing_adfu_max          =   0.0000000000000E+00
(PID.TID 0000.0001) %MON ad_forcing_adfu_min          =   0.0000000000000E+00
(PID.TID 0000.0001) %MON ad_forcing_adfu_mean         =   0.0000000000000E+00
(PID.TID 0000.0001) %MON ad_forcing_adfu_sd           =   0.0000000000000E+00
(PID.TID 0000.0001) %MON ad_forcing_adfu_del2         =   0.0000000000000E+00
(PID.TID 0000.0001) %MON ad_forcing_adfv_max          =   0.0000000000000E+00
(PID.TID 0000.0001) %MON ad_forcing_adfv_min          =   0.0000000000000E+00
(PID.TID 0000.0001) %MON ad_forcing_adfv_mean         =   0.0000000000000E+00
(PID.TID 0000.0001) %MON ad_forcing_adfv_sd           =   0.0000000000000E+00
(PID.TID 0000.0001) %MON ad_forcing_adfv_del2         =   0.0000000000000E+00
(PID.TID 0000.0001) %MON ad_advcfl_aduvel_max         =   3.7307497187000E-04
(PID.TID 0000.0001) %MON ad_advcfl_advvel_max         =   4.3182592639268E-04
(PID.TID 0000.0001) %MON ad_advcfl_adwvel_max         =   1.0955307567684E-01
(PID.TID 0000.0001) %MON ad_advcfl_adW_hf_max         =   4.8628067175006E-01
(PID.TID 0000.0001) // =======================================================
(PID.TID 0000.0001) // End MONITOR dynamic field statistics
(PID.TID 0000.0001) // =======================================================
 cg2d: Sum(rhs),rhsMax =   5.07233144375618E-15  1.97394175720561E-03
(PID.TID 0000.0001) SOLVE_FOR_PRESSURE: putPmEinXvector =    F
 cg2d: Sum(rhs),rhsMax =   7.04913205714849E-13  5.97849185308842E-02
(PID.TID 0000.0001) // =======================================================
(PID.TID 0000.0001) // Begin MONITOR dynamic field statistics
(PID.TID 0000.0001) // =======================================================
(PID.TID 0000.0001) %MON ad_time_tsnumber             =                  8641
(PID.TID 0000.0001) %MON ad_time_secondsf             =   1.5553800000000E+07
(PID.TID 0000.0001) %MON ad_dynstat_adeta_max         =   1.1289564615768E-02
(PID.TID 0000.0001) %MON ad_dynstat_adeta_min         =  -7.0940094147131E-02
(PID.TID 0000.0001) %MON ad_dynstat_adeta_mean        =  -2.2108838820412E-04
(PID.TID 0000.0001) %MON ad_dynstat_adeta_sd          =   6.1014032814522E-03
(PID.TID 0000.0001) %MON ad_dynstat_adeta_del2        =   9.0166036065072E-05
(PID.TID 0000.0001) %MON ad_dynstat_aduvel_max        =   1.0660975902537E-03
(PID.TID 0000.0001) %MON ad_dynstat_aduvel_min        =  -1.1758815634268E-03
(PID.TID 0000.0001) %MON ad_dynstat_aduvel_mean       =   5.9544035172874E-05
(PID.TID 0000.0001) %MON ad_dynstat_aduvel_sd         =   1.9012347712674E-04
(PID.TID 0000.0001) %MON ad_dynstat_aduvel_del2       =   1.3783291280724E-07
(PID.TID 0000.0001) %MON ad_dynstat_advvel_max        =   2.2601529572365E-03
(PID.TID 0000.0001) %MON ad_dynstat_advvel_min        =  -2.4896070943079E-03
(PID.TID 0000.0001) %MON ad_dynstat_advvel_mean       =  -1.1601077098946E-03
(PID.TID 0000.0001) %MON ad_dynstat_advvel_sd         =   4.0683293756775E-04
(PID.TID 0000.0001) %MON ad_dynstat_advvel_del2       =   6.2673106970687E-07
(PID.TID 0000.0001) %MON ad_dynstat_adwvel_max        =   1.0383734930995E-03
(PID.TID 0000.0001) %MON ad_dynstat_adwvel_min        =  -1.9986340599741E-03
(PID.TID 0000.0001) %MON ad_dynstat_adwvel_mean       =  -8.0794894212521E-06
(PID.TID 0000.0001) %MON ad_dynstat_adwvel_sd         =   7.4551123634163E-05
(PID.TID 0000.0001) %MON ad_dynstat_adwvel_del2       =   4.4877183234154E-07
(PID.TID 0000.0001) %MON ad_dynstat_adtheta_max       =  -6.2960057383300E-01
(PID.TID 0000.0001) %MON ad_dynstat_adtheta_min       =  -6.7878513206095E+00
(PID.TID 0000.0001) %MON ad_dynstat_adtheta_mean      =  -3.8162593866778E+00
(PID.TID 0000.0001) %MON ad_dynstat_adtheta_sd        =   5.6778650277419E-02
(PID.TID 0000.0001) %MON ad_dynstat_adtheta_del2      =   2.3643068404237E-04
(PID.TID 0000.0001) %MON ad_dynstat_adsalt_max        =   2.2793687320834E-02
(PID.TID 0000.0001) %MON ad_dynstat_adsalt_min        =  -3.5688981917824E-03
(PID.TID 0000.0001) %MON ad_dynstat_adsalt_mean       =   7.5338193696635E-04
(PID.TID 0000.0001) %MON ad_dynstat_adsalt_sd         =   3.1654081235989E-03
(PID.TID 0000.0001) %MON ad_dynstat_adsalt_del2       =   5.0371186562285E-06
(PID.TID 0000.0001) %MON ad_dynstat_adsst_max         =   0.0000000000000E+00
(PID.TID 0000.0001) %MON ad_dynstat_adsst_min         =   0.0000000000000E+00
(PID.TID 0000.0001) %MON ad_dynstat_adsst_mean        =   0.0000000000000E+00
(PID.TID 0000.0001) %MON ad_dynstat_adsst_sd          =   0.0000000000000E+00
(PID.TID 0000.0001) %MON ad_dynstat_adsst_del2        =   0.0000000000000E+00
(PID.TID 0000.0001) %MON ad_dynstat_adsss_max         =   0.0000000000000E+00
(PID.TID 0000.0001) %MON ad_dynstat_adsss_min         =   0.0000000000000E+00
(PID.TID 0000.0001) %MON ad_dynstat_adsss_mean        =   0.0000000000000E+00
(PID.TID 0000.0001) %MON ad_dynstat_adsss_sd          =   0.0000000000000E+00
(PID.TID 0000.0001) %MON ad_dynstat_adsss_del2        =   0.0000000000000E+00
(PID.TID 0000.0001) %MON ad_forcing_adqnet_max        =   0.0000000000000E+00
(PID.TID 0000.0001) %MON ad_forcing_adqnet_min        =   0.0000000000000E+00
(PID.TID 0000.0001) %MON ad_forcing_adqnet_mean       =   0.0000000000000E+00
(PID.TID 0000.0001) %MON ad_forcing_adqnet_sd         =   0.0000000000000E+00
(PID.TID 0000.0001) %MON ad_forcing_adqnet_del2       =   0.0000000000000E+00
(PID.TID 0000.0001) %MON ad_forcing_adempmr_max       =   0.0000000000000E+00
(PID.TID 0000.0001) %MON ad_forcing_adempmr_min       =   0.0000000000000E+00
(PID.TID 0000.0001) %MON ad_forcing_adempmr_mean      =   0.0000000000000E+00
(PID.TID 0000.0001) %MON ad_forcing_adempmr_sd        =   0.0000000000000E+00
(PID.TID 0000.0001) %MON ad_forcing_adempmr_del2      =   0.0000000000000E+00
(PID.TID 0000.0001) %MON ad_forcing_adfu_max          =   0.0000000000000E+00
(PID.TID 0000.0001) %MON ad_forcing_adfu_min          =   0.0000000000000E+00
(PID.TID 0000.0001) %MON ad_forcing_adfu_mean         =   0.0000000000000E+00
(PID.TID 0000.0001) %MON ad_forcing_adfu_sd           =   0.0000000000000E+00
(PID.TID 0000.0001) %MON ad_forcing_adfu_del2         =   0.0000000000000E+00
(PID.TID 0000.0001) %MON ad_forcing_adfv_max          =   0.0000000000000E+00
(PID.TID 0000.0001) %MON ad_forcing_adfv_min          =   0.0000000000000E+00
(PID.TID 0000.0001) %MON ad_forcing_adfv_mean         =   0.0000000000000E+00
(PID.TID 0000.0001) %MON ad_forcing_adfv_sd           =   0.0000000000000E+00
(PID.TID 0000.0001) %MON ad_forcing_adfv_del2         =   0.0000000000000E+00
(PID.TID 0000.0001) %MON ad_advcfl_aduvel_max         =   3.5321962626437E-04
(PID.TID 0000.0001) %MON ad_advcfl_advvel_max         =   4.0307560827223E-04
(PID.TID 0000.0001) %MON ad_advcfl_adwvel_max         =   1.1991804359844E-01
(PID.TID 0000.0001) %MON ad_advcfl_adW_hf_max         =   4.9822393718799E-01
(PID.TID 0000.0001) // =======================================================
(PID.TID 0000.0001) // End MONITOR dynamic field statistics
(PID.TID 0000.0001) // =======================================================
 cg2d: Sum(rhs),rhsMax =   3.40005801291454E-16  2.85973402725566E-03
(PID.TID 0000.0001)  nRecords = 243 ; filePrec =  64 ; fileIter =      8640
(PID.TID 0000.0001)     nDims =   2 , dims:
(PID.TID 0000.0001)    1:  50   1  50
(PID.TID 0000.0001)    2: 100   1 100
(PID.TID 0000.0001)     nFlds =  11 , nFl3D =   8 , fields:
(PID.TID 0000.0001)  >Uvel    < >Vvel    < >Theta   < >Salt    < >GuNm1   < >GvNm1   < >GtNm1   < >GsNm1   < >EtaN    < >dEtaHdt < >EtaH    <
(PID.TID 0000.0001)   nTimRec =   0 , timeList:
(PID.TID 0000.0001) READ_MFLDS_3D_RL: read field: "Uvel    ", #   1 in fldList, rec=   1
(PID.TID 0000.0001) READ_MFLDS_3D_RL: read field: "Vvel    ", #   2 in fldList, rec=   2
(PID.TID 0000.0001) READ_MFLDS_3D_RL: read field: "Theta   ", #   3 in fldList, rec=   3
(PID.TID 0000.0001) READ_MFLDS_3D_RL: read field: "Salt    ", #   4 in fldList, rec=   4
(PID.TID 0000.0001) READ_MFLDS_3D_RL: read field: "GuNm1   ", #   5 in fldList, rec=   5
(PID.TID 0000.0001) READ_MFLDS_3D_RL: read field: "GvNm1   ", #   6 in fldList, rec=   6
(PID.TID 0000.0001) READ_MFLDS_3D_RL: read field: "GtNm1   ", #   7 in fldList, rec=   7
(PID.TID 0000.0001) READ_MFLDS_3D_RL: read field: "GsNm1   ", #   8 in fldList, rec=   8
(PID.TID 0000.0001) READ_MFLDS_3D_RL: read field: "EtaN    ", #   9 in fldList, rec= 241
(PID.TID 0000.0001) READ_MFLDS_3D_RL: read field: "dEtaHdt ", #  10 in fldList, rec= 242
(PID.TID 0000.0001) READ_MFLDS_3D_RL: read field: "EtaH    ", #  11 in fldList, rec= 243
(PID.TID 0000.0001) READ_MFLDS_CHECK: - normal end ; reset MFLDS file-name: pickup.0000008640
(PID.TID 0000.0001) // =======================================================
(PID.TID 0000.0001) // Begin MONITOR dynamic field statistics
(PID.TID 0000.0001) // =======================================================
(PID.TID 0000.0001) %MON ad_time_tsnumber             =                  8640
(PID.TID 0000.0001) %MON ad_time_secondsf             =   1.5552000000000E+07
(PID.TID 0000.0001) %MON ad_dynstat_adeta_max         =   3.0570306311468E-02
(PID.TID 0000.0001) %MON ad_dynstat_adeta_min         =  -9.3355884976512E-02
(PID.TID 0000.0001) %MON ad_dynstat_adeta_mean        =  -1.9977082080727E-04
(PID.TID 0000.0001) %MON ad_dynstat_adeta_sd          =   8.2100414902222E-03
(PID.TID 0000.0001) %MON ad_dynstat_adeta_del2        =   1.2074925348679E-04
(PID.TID 0000.0001) %MON ad_dynstat_aduvel_max        =   1.4587244500892E-03
(PID.TID 0000.0001) %MON ad_dynstat_aduvel_min        =  -1.0807242909792E-03
(PID.TID 0000.0001) %MON ad_dynstat_aduvel_mean       =   3.8949822639441E-04
(PID.TID 0000.0001) %MON ad_dynstat_aduvel_sd         =   2.3243417470564E-04
(PID.TID 0000.0001) %MON ad_dynstat_aduvel_del2       =   1.4630358493723E-07
(PID.TID 0000.0001) %MON ad_dynstat_advvel_max        =   3.9126259248108E-03
(PID.TID 0000.0001) %MON ad_dynstat_advvel_min        =  -2.1113769661448E-03
(PID.TID 0000.0001) %MON ad_dynstat_advvel_mean       =  -1.1899986790457E-03
(PID.TID 0000.0001) %MON ad_dynstat_advvel_sd         =   4.2580753888446E-04
(PID.TID 0000.0001) %MON ad_dynstat_advvel_del2       =   9.1908115939399E-07
(PID.TID 0000.0001) %MON ad_dynstat_adwvel_max        =   1.2284644933676E-03
(PID.TID 0000.0001) %MON ad_dynstat_adwvel_min        =  -2.2001183069998E-03
(PID.TID 0000.0001) %MON ad_dynstat_adwvel_mean       =  -7.8467346579345E-06
(PID.TID 0000.0001) %MON ad_dynstat_adwvel_sd         =   7.5693993455596E-05
(PID.TID 0000.0001) %MON ad_dynstat_adwvel_del2       =   4.6077834790456E-07
(PID.TID 0000.0001) %MON ad_dynstat_adtheta_max       =  -6.2363538171571E-01
(PID.TID 0000.0001) %MON ad_dynstat_adtheta_min       =  -6.7762024787102E+00
(PID.TID 0000.0001) %MON ad_dynstat_adtheta_mean      =  -3.8154229846951E+00
(PID.TID 0000.0001) %MON ad_dynstat_adtheta_sd        =   7.1358861458016E-02
(PID.TID 0000.0001) %MON ad_dynstat_adtheta_del2      =   3.8208252115031E-04
(PID.TID 0000.0001) %MON ad_dynstat_adsalt_max        =   2.5344539397220E-02
(PID.TID 0000.0001) %MON ad_dynstat_adsalt_min        =  -4.2501166588057E-03
(PID.TID 0000.0001) %MON ad_dynstat_adsalt_mean       =   8.3601908762320E-04
(PID.TID 0000.0001) %MON ad_dynstat_adsalt_sd         =   3.4844177837273E-03
(PID.TID 0000.0001) %MON ad_dynstat_adsalt_del2       =   5.4994864688052E-06
(PID.TID 0000.0001) %MON ad_dynstat_adsst_max         =   0.0000000000000E+00
(PID.TID 0000.0001) %MON ad_dynstat_adsst_min         =   0.0000000000000E+00
(PID.TID 0000.0001) %MON ad_dynstat_adsst_mean        =   0.0000000000000E+00
(PID.TID 0000.0001) %MON ad_dynstat_adsst_sd          =   0.0000000000000E+00
(PID.TID 0000.0001) %MON ad_dynstat_adsst_del2        =   0.0000000000000E+00
(PID.TID 0000.0001) %MON ad_dynstat_adsss_max         =   0.0000000000000E+00
(PID.TID 0000.0001) %MON ad_dynstat_adsss_min         =   0.0000000000000E+00
(PID.TID 0000.0001) %MON ad_dynstat_adsss_mean        =   0.0000000000000E+00
(PID.TID 0000.0001) %MON ad_dynstat_adsss_sd          =   0.0000000000000E+00
(PID.TID 0000.0001) %MON ad_dynstat_adsss_del2        =   0.0000000000000E+00
(PID.TID 0000.0001) %MON ad_forcing_adqnet_max        =   0.0000000000000E+00
(PID.TID 0000.0001) %MON ad_forcing_adqnet_min        =   0.0000000000000E+00
(PID.TID 0000.0001) %MON ad_forcing_adqnet_mean       =   0.0000000000000E+00
(PID.TID 0000.0001) %MON ad_forcing_adqnet_sd         =   0.0000000000000E+00
(PID.TID 0000.0001) %MON ad_forcing_adqnet_del2       =   0.0000000000000E+00
(PID.TID 0000.0001) %MON ad_forcing_adempmr_max       =   0.0000000000000E+00
(PID.TID 0000.0001) %MON ad_forcing_adempmr_min       =   0.0000000000000E+00
(PID.TID 0000.0001) %MON ad_forcing_adempmr_mean      =   0.0000000000000E+00
(PID.TID 0000.0001) %MON ad_forcing_adempmr_sd        =   0.0000000000000E+00
(PID.TID 0000.0001) %MON ad_forcing_adempmr_del2      =   0.0000000000000E+00
(PID.TID 0000.0001) %MON ad_forcing_adfu_max          =   0.0000000000000E+00
(PID.TID 0000.0001) %MON ad_forcing_adfu_min          =   0.0000000000000E+00
(PID.TID 0000.0001) %MON ad_forcing_adfu_mean         =   0.0000000000000E+00
(PID.TID 0000.0001) %MON ad_forcing_adfu_sd           =   0.0000000000000E+00
(PID.TID 0000.0001) %MON ad_forcing_adfu_del2         =   0.0000000000000E+00
(PID.TID 0000.0001) %MON ad_forcing_adfv_max          =   0.0000000000000E+00
(PID.TID 0000.0001) %MON ad_forcing_adfv_min          =   0.0000000000000E+00
(PID.TID 0000.0001) %MON ad_forcing_adfv_mean         =   0.0000000000000E+00
(PID.TID 0000.0001) %MON ad_forcing_adfv_sd           =   0.0000000000000E+00
(PID.TID 0000.0001) %MON ad_forcing_adfv_del2         =   0.0000000000000E+00
(PID.TID 0000.0001) %MON ad_advcfl_aduvel_max         =   3.6198859109678E-04
(PID.TID 0000.0001) %MON ad_advcfl_advvel_max         =   6.3346705517933E-04
(PID.TID 0000.0001) %MON ad_advcfl_adwvel_max         =   1.3200709841999E-01
(PID.TID 0000.0001) %MON ad_advcfl_adW_hf_max         =   5.6093049394195E-01
(PID.TID 0000.0001) // =======================================================
(PID.TID 0000.0001) // End MONITOR dynamic field statistics
(PID.TID 0000.0001) // =======================================================
 ph-check entering grdchk_main 
 ph-check fcref =    369884.27394914272     
grad-res -------------------------------
 grad-res  proc    #    i    j    k   bi   bj iobc               fc ref           fc + eps           fc - eps
 grad-res  proc    #    i    j    k   bi   bj iobc             adj grad            fd grad         1 - fd/adj
 grad-res exact position met: 
 grad-res     048529   20   24   20    1    1
 ph-test icomp, ncvarcomp, ichknum        48529      100450           1
 ph-grd _loc: bi, bj, icomptest, ichknum            1           1           0           1
 ph-grd _loc: bi, bj, icomptest, ichknum            1           1           0           1
 ph-grd _loc: bi, bj, icomptest, ichknum            1           1           0           1
 ph-grd _loc: bi, bj, icomptest, ichknum            1           1           0           1
 ph-grd _loc: bi, bj, icomptest, ichknum            1           1           0           1
 ph-grd _loc: bi, bj, icomptest, ichknum            1           1           0           1
 ph-grd _loc: bi, bj, icomptest, ichknum            1           1           0           1
 ph-grd _loc: bi, bj, icomptest, ichknum            1           1        2989           1
 ph-grd _loc: bi, bj, icomptest, ichknum            1           1        6076           1
 ph-grd _loc: bi, bj, icomptest, ichknum            1           1        9261           1
 ph-grd _loc: bi, bj, icomptest, ichknum            1           1       12593           1
 ph-grd _loc: bi, bj, icomptest, ichknum            1           1       16023           1
 ph-grd _loc: bi, bj, icomptest, ichknum            1           1       19600           1
 ph-grd _loc: bi, bj, icomptest, ichknum            1           1       23275           1
 ph-grd _loc: bi, bj, icomptest, ichknum            1           1       27048           1
 ph-grd _loc: bi, bj, icomptest, ichknum            1           1       30968           1
 ph-grd _loc: bi, bj, icomptest, ichknum            1           1       34986           1
 ph-grd _loc: bi, bj, icomptest, ichknum            1           1       39151           1
 ph-grd _loc: bi, bj, icomptest, ichknum            1           1       43414           1
 ph-grd _loc: bi, bj, icomptest, ichknum            1           1       47775           1
 ph-grd -->hit<--           20          24          20           1
(PID.TID 0000.0001) INI_CG2D: CG2D normalisation factor =  1.0404366262810520E-03
(PID.TID 0000.0001) 
(PID.TID 0000.0001)  nRecords = 243 ; filePrec =  64 ; fileIter =      8640
(PID.TID 0000.0001)     nDims =   2 , dims:
(PID.TID 0000.0001)    1:  50   1  50
(PID.TID 0000.0001)    2: 100   1 100
(PID.TID 0000.0001)     nFlds =  11 , nFl3D =   8 , fields:
(PID.TID 0000.0001)  >Uvel    < >Vvel    < >Theta   < >Salt    < >GuNm1   < >GvNm1   < >GtNm1   < >GsNm1   < >EtaN    < >dEtaHdt < >EtaH    <
(PID.TID 0000.0001)   nTimRec =   0 , timeList:
(PID.TID 0000.0001) READ_MFLDS_3D_RL: read field: "Uvel    ", #   1 in fldList, rec=   1
(PID.TID 0000.0001) READ_MFLDS_3D_RL: read field: "Vvel    ", #   2 in fldList, rec=   2
(PID.TID 0000.0001) READ_MFLDS_3D_RL: read field: "Theta   ", #   3 in fldList, rec=   3
(PID.TID 0000.0001) READ_MFLDS_3D_RL: read field: "Salt    ", #   4 in fldList, rec=   4
(PID.TID 0000.0001) READ_MFLDS_3D_RL: read field: "GuNm1   ", #   5 in fldList, rec=   5
(PID.TID 0000.0001) READ_MFLDS_3D_RL: read field: "GvNm1   ", #   6 in fldList, rec=   6
(PID.TID 0000.0001) READ_MFLDS_3D_RL: read field: "GtNm1   ", #   7 in fldList, rec=   7
(PID.TID 0000.0001) READ_MFLDS_3D_RL: read field: "GsNm1   ", #   8 in fldList, rec=   8
(PID.TID 0000.0001) READ_MFLDS_3D_RL: read field: "EtaN    ", #   9 in fldList, rec= 241
(PID.TID 0000.0001) READ_MFLDS_3D_RL: read field: "dEtaHdt ", #  10 in fldList, rec= 242
(PID.TID 0000.0001) READ_MFLDS_3D_RL: read field: "EtaH    ", #  11 in fldList, rec= 243
(PID.TID 0000.0001) READ_MFLDS_CHECK: - normal end ; reset MFLDS file-name: pickup.0000008640
(PID.TID 0000.0001) // =======================================================
(PID.TID 0000.0001) // Model current state
(PID.TID 0000.0001) // =======================================================
(PID.TID 0000.0001) 
(PID.TID 0000.0001) SOLVE_FOR_PRESSURE: putPmEinXvector =    F
 cg2d: Sum(rhs),rhsMax =   7.04913205714849E-13  5.97849185308842E-02
 cg2d: Sum(rhs),rhsMax =   7.18037310382461E-13  5.85454501312808E-02
 cg2d: Sum(rhs),rhsMax =   7.18399298382799E-13  5.84668666127655E-02
 cg2d: Sum(rhs),rhsMax =   7.16013755447734E-13  5.84481245450268E-02
 cg2d: Sum(rhs),rhsMax =   7.20506228464590E-13  5.83931396253672E-02
 cg2d: Sum(rhs),rhsMax =   7.23678780204136E-13  5.83957491061338E-02
 cg2d: Sum(rhs),rhsMax =   7.19932644857764E-13  5.84578194611372E-02
 cg2d: Sum(rhs),rhsMax =   7.20799024037534E-13  5.85316041582524E-02
 cg2d: Sum(rhs),rhsMax =   7.18533298995055E-13  5.86174987210662E-02
 cg2d: Sum(rhs),rhsMax =   7.15915215869815E-13  5.87136924526120E-02
(PID.TID 0000.0001) Did not write pickup because writePickupAtEnd = FALSE
 --> objf_shelfice(bi,bj) =  0.000000000000000D+00
 --> objf_shifwflx(bi,bj) =  0.000000000000000D+00
 --> objf_test(bi,bj)   =  0.369884235766937D+06
 --> objf_tracer(bi,bj) =  0.000000000000000D+00
 --> objf_atl(bi,bj)    =  0.000000000000000D+00
  local fc =  0.369884235766937D+06
 global fc =  0.369884235766937D+06
 ph-check fcpertplus =    369884.23576693732     
 ph-check fcpertminus =    369884.27394914272     
(PID.TID 0000.0001) INI_CG2D: CG2D normalisation factor =  1.0404366262810520E-03
(PID.TID 0000.0001) 
(PID.TID 0000.0001)  nRecords = 243 ; filePrec =  64 ; fileIter =      8640
(PID.TID 0000.0001)     nDims =   2 , dims:
(PID.TID 0000.0001)    1:  50   1  50
(PID.TID 0000.0001)    2: 100   1 100
(PID.TID 0000.0001)     nFlds =  11 , nFl3D =   8 , fields:
(PID.TID 0000.0001)  >Uvel    < >Vvel    < >Theta   < >Salt    < >GuNm1   < >GvNm1   < >GtNm1   < >GsNm1   < >EtaN    < >dEtaHdt < >EtaH    <
(PID.TID 0000.0001)   nTimRec =   0 , timeList:
(PID.TID 0000.0001) READ_MFLDS_3D_RL: read field: "Uvel    ", #   1 in fldList, rec=   1
(PID.TID 0000.0001) READ_MFLDS_3D_RL: read field: "Vvel    ", #   2 in fldList, rec=   2
(PID.TID 0000.0001) READ_MFLDS_3D_RL: read field: "Theta   ", #   3 in fldList, rec=   3
(PID.TID 0000.0001) READ_MFLDS_3D_RL: read field: "Salt    ", #   4 in fldList, rec=   4
(PID.TID 0000.0001) READ_MFLDS_3D_RL: read field: "GuNm1   ", #   5 in fldList, rec=   5
(PID.TID 0000.0001) READ_MFLDS_3D_RL: read field: "GvNm1   ", #   6 in fldList, rec=   6
(PID.TID 0000.0001) READ_MFLDS_3D_RL: read field: "GtNm1   ", #   7 in fldList, rec=   7
(PID.TID 0000.0001) READ_MFLDS_3D_RL: read field: "GsNm1   ", #   8 in fldList, rec=   8
(PID.TID 0000.0001) READ_MFLDS_3D_RL: read field: "EtaN    ", #   9 in fldList, rec= 241
(PID.TID 0000.0001) READ_MFLDS_3D_RL: read field: "dEtaHdt ", #  10 in fldList, rec= 242
(PID.TID 0000.0001) READ_MFLDS_3D_RL: read field: "EtaH    ", #  11 in fldList, rec= 243
(PID.TID 0000.0001) READ_MFLDS_CHECK: - normal end ; reset MFLDS file-name: pickup.0000008640
(PID.TID 0000.0001) // =======================================================
(PID.TID 0000.0001) // Model current state
(PID.TID 0000.0001) // =======================================================
(PID.TID 0000.0001) 
(PID.TID 0000.0001) SOLVE_FOR_PRESSURE: putPmEinXvector =    F
 cg2d: Sum(rhs),rhsMax =   7.04913205714849E-13  5.97849185308842E-02
 cg2d: Sum(rhs),rhsMax =   7.15902245254293E-13  5.85454513339684E-02
 cg2d: Sum(rhs),rhsMax =   7.19672937779872E-13  5.84668673437484E-02
 cg2d: Sum(rhs),rhsMax =   7.18533305771318E-13  5.84481242029664E-02
 cg2d: Sum(rhs),rhsMax =   7.16033894503088E-13  5.83931388012764E-02
 cg2d: Sum(rhs),rhsMax =   7.16841069467976E-13  5.83957485804738E-02
 cg2d: Sum(rhs),rhsMax =   7.21139741346501E-13  5.84578189559655E-02
 cg2d: Sum(rhs),rhsMax =   7.19576647074428E-13  5.85316035833278E-02
 cg2d: Sum(rhs),rhsMax =   7.19651262206752E-13  5.86174980641505E-02
 cg2d: Sum(rhs),rhsMax =   7.11792967401676E-13  5.87136917739387E-02
(PID.TID 0000.0001) Did not write pickup because writePickupAtEnd = FALSE
 --> objf_shelfice(bi,bj) =  0.000000000000000D+00
 --> objf_shifwflx(bi,bj) =  0.000000000000000D+00
 --> objf_test(bi,bj)   =  0.369884312293511D+06
 --> objf_tracer(bi,bj) =  0.000000000000000D+00
 --> objf_atl(bi,bj)    =  0.000000000000000D+00
  local fc =  0.369884312293511D+06
 global fc =  0.369884312293511D+06
grad-res -------------------------------
 grad-res     0    1   20   24   20    1    1    1   3.69884273949E+05  3.69884235767E+05  3.69884312294E+05
 grad-res     0    1    148529    0    1    1    1  -3.82632855755E+00 -3.82632870751E+00 -3.91905219388E-08
(PID.TID 0000.0001)  ADM  ref_cost_function      =  3.69884273949143E+05
(PID.TID 0000.0001)  ADM  adjoint_gradient       = -3.82632855755386E+00
(PID.TID 0000.0001)  ADM  finite-diff_grad       = -3.82632870750967E+00
 ph-grd  ierr ---------------------------
 ph-grd  ierr =            0 , icomp =        48529 , ichknum =            1
 ph-test icomp, ncvarcomp, ichknum        48530      100450           2
 ph-grd _loc: bi, bj, icomptest, ichknum            1           1       48529           2
 ph-grd -->hit<--           21          24          20           1
(PID.TID 0000.0001) INI_CG2D: CG2D normalisation factor =  1.0404366262810520E-03
(PID.TID 0000.0001) 
(PID.TID 0000.0001)  nRecords = 243 ; filePrec =  64 ; fileIter =      8640
(PID.TID 0000.0001)     nDims =   2 , dims:
(PID.TID 0000.0001)    1:  50   1  50
(PID.TID 0000.0001)    2: 100   1 100
(PID.TID 0000.0001)     nFlds =  11 , nFl3D =   8 , fields:
(PID.TID 0000.0001)  >Uvel    < >Vvel    < >Theta   < >Salt    < >GuNm1   < >GvNm1   < >GtNm1   < >GsNm1   < >EtaN    < >dEtaHdt < >EtaH    <
(PID.TID 0000.0001)   nTimRec =   0 , timeList:
(PID.TID 0000.0001) READ_MFLDS_3D_RL: read field: "Uvel    ", #   1 in fldList, rec=   1
(PID.TID 0000.0001) READ_MFLDS_3D_RL: read field: "Vvel    ", #   2 in fldList, rec=   2
(PID.TID 0000.0001) READ_MFLDS_3D_RL: read field: "Theta   ", #   3 in fldList, rec=   3
(PID.TID 0000.0001) READ_MFLDS_3D_RL: read field: "Salt    ", #   4 in fldList, rec=   4
(PID.TID 0000.0001) READ_MFLDS_3D_RL: read field: "GuNm1   ", #   5 in fldList, rec=   5
(PID.TID 0000.0001) READ_MFLDS_3D_RL: read field: "GvNm1   ", #   6 in fldList, rec=   6
(PID.TID 0000.0001) READ_MFLDS_3D_RL: read field: "GtNm1   ", #   7 in fldList, rec=   7
(PID.TID 0000.0001) READ_MFLDS_3D_RL: read field: "GsNm1   ", #   8 in fldList, rec=   8
(PID.TID 0000.0001) READ_MFLDS_3D_RL: read field: "EtaN    ", #   9 in fldList, rec= 241
(PID.TID 0000.0001) READ_MFLDS_3D_RL: read field: "dEtaHdt ", #  10 in fldList, rec= 242
(PID.TID 0000.0001) READ_MFLDS_3D_RL: read field: "EtaH    ", #  11 in fldList, rec= 243
(PID.TID 0000.0001) READ_MFLDS_CHECK: - normal end ; reset MFLDS file-name: pickup.0000008640
(PID.TID 0000.0001) // =======================================================
(PID.TID 0000.0001) // Model current state
(PID.TID 0000.0001) // =======================================================
(PID.TID 0000.0001) 
(PID.TID 0000.0001) SOLVE_FOR_PRESSURE: putPmEinXvector =    F
 cg2d: Sum(rhs),rhsMax =   7.04913205714849E-13  5.97849185308842E-02
 cg2d: Sum(rhs),rhsMax =   7.17149430118358E-13  5.85454501654499E-02
 cg2d: Sum(rhs),rhsMax =   7.18092577588203E-13  5.84668665935816E-02
 cg2d: Sum(rhs),rhsMax =   7.18346714577434E-13  5.84481244728073E-02
 cg2d: Sum(rhs),rhsMax =   7.19243132933645E-13  5.83931395288361E-02
 cg2d: Sum(rhs),rhsMax =   7.21029572853249E-13  5.83957489805919E-02
 cg2d: Sum(rhs),rhsMax =   7.17615637052527E-13  5.84578193053868E-02
 cg2d: Sum(rhs),rhsMax =   7.23182398568254E-13  5.85316039693093E-02
 cg2d: Sum(rhs),rhsMax =   7.16586202336345E-13  5.86174984993057E-02
 cg2d: Sum(rhs),rhsMax =   7.16467276369451E-13  5.87136921995655E-02
(PID.TID 0000.0001) Did not write pickup because writePickupAtEnd = FALSE
 --> objf_shelfice(bi,bj) =  0.000000000000000D+00
 --> objf_shifwflx(bi,bj) =  0.000000000000000D+00
 --> objf_test(bi,bj)   =  0.369884235772369D+06
 --> objf_tracer(bi,bj) =  0.000000000000000D+00
 --> objf_atl(bi,bj)    =  0.000000000000000D+00
  local fc =  0.369884235772369D+06
 global fc =  0.369884235772369D+06
 ph-check fcpertplus =    369884.23577236856     
 ph-check fcpertminus =    369884.27394914272     
(PID.TID 0000.0001) INI_CG2D: CG2D normalisation factor =  1.0404366262810520E-03
(PID.TID 0000.0001) 
(PID.TID 0000.0001)  nRecords = 243 ; filePrec =  64 ; fileIter =      8640
(PID.TID 0000.0001)     nDims =   2 , dims:
(PID.TID 0000.0001)    1:  50   1  50
(PID.TID 0000.0001)    2: 100   1 100
(PID.TID 0000.0001)     nFlds =  11 , nFl3D =   8 , fields:
(PID.TID 0000.0001)  >Uvel    < >Vvel    < >Theta   < >Salt    < >GuNm1   < >GvNm1   < >GtNm1   < >GsNm1   < >EtaN    < >dEtaHdt < >EtaH    <
(PID.TID 0000.0001)   nTimRec =   0 , timeList:
(PID.TID 0000.0001) READ_MFLDS_3D_RL: read field: "Uvel    ", #   1 in fldList, rec=   1
(PID.TID 0000.0001) READ_MFLDS_3D_RL: read field: "Vvel    ", #   2 in fldList, rec=   2
(PID.TID 0000.0001) READ_MFLDS_3D_RL: read field: "Theta   ", #   3 in fldList, rec=   3
(PID.TID 0000.0001) READ_MFLDS_3D_RL: read field: "Salt    ", #   4 in fldList, rec=   4
(PID.TID 0000.0001) READ_MFLDS_3D_RL: read field: "GuNm1   ", #   5 in fldList, rec=   5
(PID.TID 0000.0001) READ_MFLDS_3D_RL: read field: "GvNm1   ", #   6 in fldList, rec=   6
(PID.TID 0000.0001) READ_MFLDS_3D_RL: read field: "GtNm1   ", #   7 in fldList, rec=   7
(PID.TID 0000.0001) READ_MFLDS_3D_RL: read field: "GsNm1   ", #   8 in fldList, rec=   8
(PID.TID 0000.0001) READ_MFLDS_3D_RL: read field: "EtaN    ", #   9 in fldList, rec= 241
(PID.TID 0000.0001) READ_MFLDS_3D_RL: read field: "dEtaHdt ", #  10 in fldList, rec= 242
(PID.TID 0000.0001) READ_MFLDS_3D_RL: read field: "EtaH    ", #  11 in fldList, rec= 243
(PID.TID 0000.0001) READ_MFLDS_CHECK: - normal end ; reset MFLDS file-name: pickup.0000008640
(PID.TID 0000.0001) // =======================================================
(PID.TID 0000.0001) // Model current state
(PID.TID 0000.0001) // =======================================================
(PID.TID 0000.0001) 
(PID.TID 0000.0001) SOLVE_FOR_PRESSURE: putPmEinXvector =    F
 cg2d: Sum(rhs),rhsMax =   7.04913205714849E-13  5.97849185308842E-02
 cg2d: Sum(rhs),rhsMax =   7.20529782756787E-13  5.85454512998857E-02
 cg2d: Sum(rhs),rhsMax =   7.16441310574453E-13  5.84668673630038E-02
 cg2d: Sum(rhs),rhsMax =   7.16174434209696E-13  5.84481242751633E-02
 cg2d: Sum(rhs),rhsMax =   7.20014407254096E-13  5.83931388972884E-02
 cg2d: Sum(rhs),rhsMax =   7.16806591838891E-13  5.83957487055181E-02
 cg2d: Sum(rhs),rhsMax =   7.16213831406139E-13  5.84578191111930E-02
 cg2d: Sum(rhs),rhsMax =   7.18065093063130E-13  5.85316037717266E-02
 cg2d: Sum(rhs),rhsMax =   7.15236912732686E-13  5.86174982851601E-02
 cg2d: Sum(rhs),rhsMax =   7.07595871714186E-13  5.87136920260641E-02
(PID.TID 0000.0001) Did not write pickup because writePickupAtEnd = FALSE
 --> objf_shelfice(bi,bj) =  0.000000000000000D+00
 --> objf_shifwflx(bi,bj) =  0.000000000000000D+00
 --> objf_test(bi,bj)   =  0.369884312288080D+06
 --> objf_tracer(bi,bj) =  0.000000000000000D+00
 --> objf_atl(bi,bj)    =  0.000000000000000D+00
  local fc =  0.369884312288080D+06
 global fc =  0.369884312288080D+06
grad-res -------------------------------
 grad-res     0    2   21   24   20    1    1    1   3.69884273949E+05  3.69884235772E+05  3.69884312288E+05
 grad-res     0    2    248530    0    1    1    1  -3.82578541583E+00 -3.82578558929E+00 -4.53389639166E-08
(PID.TID 0000.0001)  ADM  ref_cost_function      =  3.69884273949143E+05
(PID.TID 0000.0001)  ADM  adjoint_gradient       = -3.82578541583084E+00
(PID.TID 0000.0001)  ADM  finite-diff_grad       = -3.82578558928799E+00
 ph-grd  ierr ---------------------------
 ph-grd  ierr =            0 , icomp =        48530 , ichknum =            2
 ph-test icomp, ncvarcomp, ichknum        48531      100450           3
 ph-grd _loc: bi, bj, icomptest, ichknum            1           1       48530           3
 ph-grd -->hit<--           22          24          20           1
(PID.TID 0000.0001) INI_CG2D: CG2D normalisation factor =  1.0404366262810520E-03
(PID.TID 0000.0001) 
(PID.TID 0000.0001)  nRecords = 243 ; filePrec =  64 ; fileIter =      8640
(PID.TID 0000.0001)     nDims =   2 , dims:
(PID.TID 0000.0001)    1:  50   1  50
(PID.TID 0000.0001)    2: 100   1 100
(PID.TID 0000.0001)     nFlds =  11 , nFl3D =   8 , fields:
(PID.TID 0000.0001)  >Uvel    < >Vvel    < >Theta   < >Salt    < >GuNm1   < >GvNm1   < >GtNm1   < >GsNm1   < >EtaN    < >dEtaHdt < >EtaH    <
(PID.TID 0000.0001)   nTimRec =   0 , timeList:
(PID.TID 0000.0001) READ_MFLDS_3D_RL: read field: "Uvel    ", #   1 in fldList, rec=   1
(PID.TID 0000.0001) READ_MFLDS_3D_RL: read field: "Vvel    ", #   2 in fldList, rec=   2
(PID.TID 0000.0001) READ_MFLDS_3D_RL: read field: "Theta   ", #   3 in fldList, rec=   3
(PID.TID 0000.0001) READ_MFLDS_3D_RL: read field: "Salt    ", #   4 in fldList, rec=   4
(PID.TID 0000.0001) READ_MFLDS_3D_RL: read field: "GuNm1   ", #   5 in fldList, rec=   5
(PID.TID 0000.0001) READ_MFLDS_3D_RL: read field: "GvNm1   ", #   6 in fldList, rec=   6
(PID.TID 0000.0001) READ_MFLDS_3D_RL: read field: "GtNm1   ", #   7 in fldList, rec=   7
(PID.TID 0000.0001) READ_MFLDS_3D_RL: read field: "GsNm1   ", #   8 in fldList, rec=   8
(PID.TID 0000.0001) READ_MFLDS_3D_RL: read field: "EtaN    ", #   9 in fldList, rec= 241
(PID.TID 0000.0001) READ_MFLDS_3D_RL: read field: "dEtaHdt ", #  10 in fldList, rec= 242
(PID.TID 0000.0001) READ_MFLDS_3D_RL: read field: "EtaH    ", #  11 in fldList, rec= 243
(PID.TID 0000.0001) READ_MFLDS_CHECK: - normal end ; reset MFLDS file-name: pickup.0000008640
(PID.TID 0000.0001) // =======================================================
(PID.TID 0000.0001) // Model current state
(PID.TID 0000.0001) // =======================================================
(PID.TID 0000.0001) 
(PID.TID 0000.0001) SOLVE_FOR_PRESSURE: putPmEinXvector =    F
 cg2d: Sum(rhs),rhsMax =   7.04913205714849E-13  5.97849185308842E-02
 cg2d: Sum(rhs),rhsMax =   7.16542520847255E-13  5.85454501984391E-02
 cg2d: Sum(rhs),rhsMax =   7.24444376015709E-13  5.84668665783072E-02
 cg2d: Sum(rhs),rhsMax =   7.18928904039004E-13  5.84481244079730E-02
 cg2d: Sum(rhs),rhsMax =   7.14231598126711E-13  5.83931394414730E-02
 cg2d: Sum(rhs),rhsMax =   7.19005787525560E-13  5.83957488716884E-02
 cg2d: Sum(rhs),rhsMax =   7.17675593432665E-13  5.84578191705892E-02
 cg2d: Sum(rhs),rhsMax =   7.17579953248525E-13  5.85316038055464E-02
 cg2d: Sum(rhs),rhsMax =   7.13725502716990E-13  5.86174983073985E-02
 cg2d: Sum(rhs),rhsMax =   7.16118779909897E-13  5.87136919809970E-02
(PID.TID 0000.0001) Did not write pickup because writePickupAtEnd = FALSE
 --> objf_shelfice(bi,bj) =  0.000000000000000D+00
 --> objf_shifwflx(bi,bj) =  0.000000000000000D+00
 --> objf_test(bi,bj)   =  0.369884235775968D+06
 --> objf_tracer(bi,bj) =  0.000000000000000D+00
 --> objf_atl(bi,bj)    =  0.000000000000000D+00
  local fc =  0.369884235775968D+06
 global fc =  0.369884235775968D+06
 ph-check fcpertplus =    369884.23577596812     
 ph-check fcpertminus =    369884.27394914272     
(PID.TID 0000.0001) INI_CG2D: CG2D normalisation factor =  1.0404366262810520E-03
(PID.TID 0000.0001) 
(PID.TID 0000.0001)  nRecords = 243 ; filePrec =  64 ; fileIter =      8640
(PID.TID 0000.0001)     nDims =   2 , dims:
(PID.TID 0000.0001)    1:  50   1  50
(PID.TID 0000.0001)    2: 100   1 100
(PID.TID 0000.0001)     nFlds =  11 , nFl3D =   8 , fields:
(PID.TID 0000.0001)  >Uvel    < >Vvel    < >Theta   < >Salt    < >GuNm1   < >GvNm1   < >GtNm1   < >GsNm1   < >EtaN    < >dEtaHdt < >EtaH    <
(PID.TID 0000.0001)   nTimRec =   0 , timeList:
(PID.TID 0000.0001) READ_MFLDS_3D_RL: read field: "Uvel    ", #   1 in fldList, rec=   1
(PID.TID 0000.0001) READ_MFLDS_3D_RL: read field: "Vvel    ", #   2 in fldList, rec=   2
(PID.TID 0000.0001) READ_MFLDS_3D_RL: read field: "Theta   ", #   3 in fldList, rec=   3
(PID.TID 0000.0001) READ_MFLDS_3D_RL: read field: "Salt    ", #   4 in fldList, rec=   4
(PID.TID 0000.0001) READ_MFLDS_3D_RL: read field: "GuNm1   ", #   5 in fldList, rec=   5
(PID.TID 0000.0001) READ_MFLDS_3D_RL: read field: "GvNm1   ", #   6 in fldList, rec=   6
(PID.TID 0000.0001) READ_MFLDS_3D_RL: read field: "GtNm1   ", #   7 in fldList, rec=   7
(PID.TID 0000.0001) READ_MFLDS_3D_RL: read field: "GsNm1   ", #   8 in fldList, rec=   8
(PID.TID 0000.0001) READ_MFLDS_3D_RL: read field: "EtaN    ", #   9 in fldList, rec= 241
(PID.TID 0000.0001) READ_MFLDS_3D_RL: read field: "dEtaHdt ", #  10 in fldList, rec= 242
(PID.TID 0000.0001) READ_MFLDS_3D_RL: read field: "EtaH    ", #  11 in fldList, rec= 243
(PID.TID 0000.0001) READ_MFLDS_CHECK: - normal end ; reset MFLDS file-name: pickup.0000008640
(PID.TID 0000.0001) // =======================================================
(PID.TID 0000.0001) // Model current state
(PID.TID 0000.0001) // =======================================================
(PID.TID 0000.0001) 
(PID.TID 0000.0001) SOLVE_FOR_PRESSURE: putPmEinXvector =    F
 cg2d: Sum(rhs),rhsMax =   7.04913205714849E-13  5.97849185308842E-02
 cg2d: Sum(rhs),rhsMax =   7.17524347229603E-13  5.85454512670087E-02
 cg2d: Sum(rhs),rhsMax =   7.15602625983927E-13  5.84668673782099E-02
 cg2d: Sum(rhs),rhsMax =   7.18722661680743E-13  5.84481243399621E-02
 cg2d: Sum(rhs),rhsMax =   7.19149837336702E-13  5.83931389840775E-02
 cg2d: Sum(rhs),rhsMax =   7.16814723355184E-13  5.83957488142836E-02
 cg2d: Sum(rhs),rhsMax =   7.14828790235843E-13  5.84578192454101E-02
 cg2d: Sum(rhs),rhsMax =   7.20909456805065E-13  5.85316039349476E-02
 cg2d: Sum(rhs),rhsMax =   7.17230697847449E-13  5.86174984766705E-02
 cg2d: Sum(rhs),rhsMax =   7.14212780442754E-13  5.87136922443933E-02
(PID.TID 0000.0001) Did not write pickup because writePickupAtEnd = FALSE
 --> objf_shelfice(bi,bj) =  0.000000000000000D+00
 --> objf_shifwflx(bi,bj) =  0.000000000000000D+00
 --> objf_test(bi,bj)   =  0.369884312284481D+06
 --> objf_tracer(bi,bj) =  0.000000000000000D+00
 --> objf_atl(bi,bj)    =  0.000000000000000D+00
  local fc =  0.369884312284481D+06
 global fc =  0.369884312284481D+06
grad-res -------------------------------
 grad-res     0    3   22   24   20    1    1    1   3.69884273949E+05  3.69884235776E+05  3.69884312284E+05
 grad-res     0    3    348531    0    1    1    1  -3.82542551496E+00 -3.82542565058E+00 -3.54518021606E-08
(PID.TID 0000.0001)  ADM  ref_cost_function      =  3.69884273949143E+05
(PID.TID 0000.0001)  ADM  adjoint_gradient       = -3.82542551495697E+00
(PID.TID 0000.0001)  ADM  finite-diff_grad       = -3.82542565057520E+00
 ph-grd  ierr ---------------------------
 ph-grd  ierr =            0 , icomp =        48531 , ichknum =            3
 ph-test icomp, ncvarcomp, ichknum        48532      100450           4
 ph-grd _loc: bi, bj, icomptest, ichknum            1           1       48531           4
 ph-grd -->hit<--           23          24          20           1
(PID.TID 0000.0001) INI_CG2D: CG2D normalisation factor =  1.0404366262810520E-03
(PID.TID 0000.0001) 
(PID.TID 0000.0001)  nRecords = 243 ; filePrec =  64 ; fileIter =      8640
(PID.TID 0000.0001)     nDims =   2 , dims:
(PID.TID 0000.0001)    1:  50   1  50
(PID.TID 0000.0001)    2: 100   1 100
(PID.TID 0000.0001)     nFlds =  11 , nFl3D =   8 , fields:
(PID.TID 0000.0001)  >Uvel    < >Vvel    < >Theta   < >Salt    < >GuNm1   < >GvNm1   < >GtNm1   < >GsNm1   < >EtaN    < >dEtaHdt < >EtaH    <
(PID.TID 0000.0001)   nTimRec =   0 , timeList:
(PID.TID 0000.0001) READ_MFLDS_3D_RL: read field: "Uvel    ", #   1 in fldList, rec=   1
(PID.TID 0000.0001) READ_MFLDS_3D_RL: read field: "Vvel    ", #   2 in fldList, rec=   2
(PID.TID 0000.0001) READ_MFLDS_3D_RL: read field: "Theta   ", #   3 in fldList, rec=   3
(PID.TID 0000.0001) READ_MFLDS_3D_RL: read field: "Salt    ", #   4 in fldList, rec=   4
(PID.TID 0000.0001) READ_MFLDS_3D_RL: read field: "GuNm1   ", #   5 in fldList, rec=   5
(PID.TID 0000.0001) READ_MFLDS_3D_RL: read field: "GvNm1   ", #   6 in fldList, rec=   6
(PID.TID 0000.0001) READ_MFLDS_3D_RL: read field: "GtNm1   ", #   7 in fldList, rec=   7
(PID.TID 0000.0001) READ_MFLDS_3D_RL: read field: "GsNm1   ", #   8 in fldList, rec=   8
(PID.TID 0000.0001) READ_MFLDS_3D_RL: read field: "EtaN    ", #   9 in fldList, rec= 241
(PID.TID 0000.0001) READ_MFLDS_3D_RL: read field: "dEtaHdt ", #  10 in fldList, rec= 242
(PID.TID 0000.0001) READ_MFLDS_3D_RL: read field: "EtaH    ", #  11 in fldList, rec= 243
(PID.TID 0000.0001) READ_MFLDS_CHECK: - normal end ; reset MFLDS file-name: pickup.0000008640
(PID.TID 0000.0001) // =======================================================
(PID.TID 0000.0001) // Model current state
(PID.TID 0000.0001) // =======================================================
(PID.TID 0000.0001) 
(PID.TID 0000.0001) SOLVE_FOR_PRESSURE: putPmEinXvector =    F
 cg2d: Sum(rhs),rhsMax =   7.04913205714849E-13  5.97849185308842E-02
 cg2d: Sum(rhs),rhsMax =   7.18201892272244E-13  5.85454502301098E-02
 cg2d: Sum(rhs),rhsMax =   7.14645058625188E-13  5.84668665665895E-02
 cg2d: Sum(rhs),rhsMax =   7.16244094199278E-13  5.84481243498181E-02
 cg2d: Sum(rhs),rhsMax =   7.19038435563479E-13  5.83931393625498E-02
 cg2d: Sum(rhs),rhsMax =   7.18985174131756E-13  5.83957487769529E-02
 cg2d: Sum(rhs),rhsMax =   7.18730142675733E-13  5.84578190540380E-02
 cg2d: Sum(rhs),rhsMax =   7.18470564346849E-13  5.85316036639509E-02
 cg2d: Sum(rhs),rhsMax =   7.17206858952182E-13  5.86174981413628E-02
 cg2d: Sum(rhs),rhsMax =   7.19964654232841E-13  5.87136917919936E-02
(PID.TID 0000.0001) Did not write pickup because writePickupAtEnd = FALSE
 --> objf_shelfice(bi,bj) =  0.000000000000000D+00
 --> objf_shifwflx(bi,bj) =  0.000000000000000D+00
 --> objf_test(bi,bj)   =  0.369884235778316D+06
 --> objf_tracer(bi,bj) =  0.000000000000000D+00
 --> objf_atl(bi,bj)    =  0.000000000000000D+00
  local fc =  0.369884235778316D+06
 global fc =  0.369884235778316D+06
 ph-check fcpertplus =    369884.23577831569     
 ph-check fcpertminus =    369884.27394914272     
(PID.TID 0000.0001) INI_CG2D: CG2D normalisation factor =  1.0404366262810520E-03
(PID.TID 0000.0001) 
(PID.TID 0000.0001)  nRecords = 243 ; filePrec =  64 ; fileIter =      8640
(PID.TID 0000.0001)     nDims =   2 , dims:
(PID.TID 0000.0001)    1:  50   1  50
(PID.TID 0000.0001)    2: 100   1 100
(PID.TID 0000.0001)     nFlds =  11 , nFl3D =   8 , fields:
(PID.TID 0000.0001)  >Uvel    < >Vvel    < >Theta   < >Salt    < >GuNm1   < >GvNm1   < >GtNm1   < >GsNm1   < >EtaN    < >dEtaHdt < >EtaH    <
(PID.TID 0000.0001)   nTimRec =   0 , timeList:
(PID.TID 0000.0001) READ_MFLDS_3D_RL: read field: "Uvel    ", #   1 in fldList, rec=   1
(PID.TID 0000.0001) READ_MFLDS_3D_RL: read field: "Vvel    ", #   2 in fldList, rec=   2
(PID.TID 0000.0001) READ_MFLDS_3D_RL: read field: "Theta   ", #   3 in fldList, rec=   3
(PID.TID 0000.0001) READ_MFLDS_3D_RL: read field: "Salt    ", #   4 in fldList, rec=   4
(PID.TID 0000.0001) READ_MFLDS_3D_RL: read field: "GuNm1   ", #   5 in fldList, rec=   5
(PID.TID 0000.0001) READ_MFLDS_3D_RL: read field: "GvNm1   ", #   6 in fldList, rec=   6
(PID.TID 0000.0001) READ_MFLDS_3D_RL: read field: "GtNm1   ", #   7 in fldList, rec=   7
(PID.TID 0000.0001) READ_MFLDS_3D_RL: read field: "GsNm1   ", #   8 in fldList, rec=   8
(PID.TID 0000.0001) READ_MFLDS_3D_RL: read field: "EtaN    ", #   9 in fldList, rec= 241
(PID.TID 0000.0001) READ_MFLDS_3D_RL: read field: "dEtaHdt ", #  10 in fldList, rec= 242
(PID.TID 0000.0001) READ_MFLDS_3D_RL: read field: "EtaH    ", #  11 in fldList, rec= 243
(PID.TID 0000.0001) READ_MFLDS_CHECK: - normal end ; reset MFLDS file-name: pickup.0000008640
(PID.TID 0000.0001) // =======================================================
(PID.TID 0000.0001) // Model current state
(PID.TID 0000.0001) // =======================================================
(PID.TID 0000.0001) 
(PID.TID 0000.0001) SOLVE_FOR_PRESSURE: putPmEinXvector =    F
 cg2d: Sum(rhs),rhsMax =   7.04913205714849E-13  5.97849185308842E-02
 cg2d: Sum(rhs),rhsMax =   7.20416456524708E-13  5.85454512355361E-02
 cg2d: Sum(rhs),rhsMax =   7.17140756500978E-13  5.84668673898418E-02
 cg2d: Sum(rhs),rhsMax =   7.21939516631562E-13  5.84481243980186E-02
 cg2d: Sum(rhs),rhsMax =   7.16151096757933E-13  5.83931390626743E-02
 cg2d: Sum(rhs),rhsMax =   7.19677748927013E-13  5.83957489086270E-02
 cg2d: Sum(rhs),rhsMax =   7.21070271092299E-13  5.84578193620442E-02
 cg2d: Sum(rhs),rhsMax =   7.12310730690245E-13  5.85316040763902E-02
 cg2d: Sum(rhs),rhsMax =   7.15890307171935E-13  5.86174986422182E-02
 cg2d: Sum(rhs),rhsMax =   7.16566624016802E-13  5.87136924326263E-02
(PID.TID 0000.0001) Did not write pickup because writePickupAtEnd = FALSE
 --> objf_shelfice(bi,bj) =  0.000000000000000D+00
 --> objf_shifwflx(bi,bj) =  0.000000000000000D+00
 --> objf_test(bi,bj)   =  0.369884312282133D+06
 --> objf_tracer(bi,bj) =  0.000000000000000D+00
 --> objf_atl(bi,bj)    =  0.000000000000000D+00
  local fc =  0.369884312282133D+06
 global fc =  0.369884312282133D+06
grad-res -------------------------------
 grad-res     0    4   23   24   20    1    1    1   3.69884273949E+05  3.69884235778E+05  3.69884312282E+05
 grad-res     0    4    448532    0    1    1    1  -3.82519071110E+00 -3.82519084960E+00 -3.62091547856E-08
(PID.TID 0000.0001)  ADM  ref_cost_function      =  3.69884273949143E+05
(PID.TID 0000.0001)  ADM  adjoint_gradient       = -3.82519071109530E+00
(PID.TID 0000.0001)  ADM  finite-diff_grad       = -3.82519084960222E+00
 ph-grd  ierr ---------------------------
 ph-grd  ierr =            0 , icomp =        48532 , ichknum =            4
 ph-test icomp, ncvarcomp, ichknum        48533      100450           5
 ph-grd _loc: bi, bj, icomptest, ichknum            1           1       48532           5
 ph-grd -->hit<--           24          24          20           1
(PID.TID 0000.0001) INI_CG2D: CG2D normalisation factor =  1.0404366262810520E-03
(PID.TID 0000.0001) 
(PID.TID 0000.0001)  nRecords = 243 ; filePrec =  64 ; fileIter =      8640
(PID.TID 0000.0001)     nDims =   2 , dims:
(PID.TID 0000.0001)    1:  50   1  50
(PID.TID 0000.0001)    2: 100   1 100
(PID.TID 0000.0001)     nFlds =  11 , nFl3D =   8 , fields:
(PID.TID 0000.0001)  >Uvel    < >Vvel    < >Theta   < >Salt    < >GuNm1   < >GvNm1   < >GtNm1   < >GsNm1   < >EtaN    < >dEtaHdt < >EtaH    <
(PID.TID 0000.0001)   nTimRec =   0 , timeList:
(PID.TID 0000.0001) READ_MFLDS_3D_RL: read field: "Uvel    ", #   1 in fldList, rec=   1
(PID.TID 0000.0001) READ_MFLDS_3D_RL: read field: "Vvel    ", #   2 in fldList, rec=   2
(PID.TID 0000.0001) READ_MFLDS_3D_RL: read field: "Theta   ", #   3 in fldList, rec=   3
(PID.TID 0000.0001) READ_MFLDS_3D_RL: read field: "Salt    ", #   4 in fldList, rec=   4
(PID.TID 0000.0001) READ_MFLDS_3D_RL: read field: "GuNm1   ", #   5 in fldList, rec=   5
(PID.TID 0000.0001) READ_MFLDS_3D_RL: read field: "GvNm1   ", #   6 in fldList, rec=   6
(PID.TID 0000.0001) READ_MFLDS_3D_RL: read field: "GtNm1   ", #   7 in fldList, rec=   7
(PID.TID 0000.0001) READ_MFLDS_3D_RL: read field: "GsNm1   ", #   8 in fldList, rec=   8
(PID.TID 0000.0001) READ_MFLDS_3D_RL: read field: "EtaN    ", #   9 in fldList, rec= 241
(PID.TID 0000.0001) READ_MFLDS_3D_RL: read field: "dEtaHdt ", #  10 in fldList, rec= 242
(PID.TID 0000.0001) READ_MFLDS_3D_RL: read field: "EtaH    ", #  11 in fldList, rec= 243
(PID.TID 0000.0001) READ_MFLDS_CHECK: - normal end ; reset MFLDS file-name: pickup.0000008640
(PID.TID 0000.0001) // =======================================================
(PID.TID 0000.0001) // Model current state
(PID.TID 0000.0001) // =======================================================
(PID.TID 0000.0001) 
(PID.TID 0000.0001) SOLVE_FOR_PRESSURE: putPmEinXvector =    F
 cg2d: Sum(rhs),rhsMax =   7.04913205714849E-13  5.97849185308842E-02
 cg2d: Sum(rhs),rhsMax =   7.14843684463187E-13  5.85454502604104E-02
 cg2d: Sum(rhs),rhsMax =   7.18855368026655E-13  5.84668665583450E-02
 cg2d: Sum(rhs),rhsMax =   7.14859703550286E-13  5.84481242976694E-02
 cg2d: Sum(rhs),rhsMax =   7.22598223661455E-13  5.83931392914739E-02
 cg2d: Sum(rhs),rhsMax =   7.21742747489783E-13  5.83957486945187E-02
 cg2d: Sum(rhs),rhsMax =   7.19625016043848E-13  5.84578189528831E-02
 cg2d: Sum(rhs),rhsMax =   7.15390522157671E-13  5.85316035411499E-02
 cg2d: Sum(rhs),rhsMax =   7.16480443496616E-13  5.86174979975082E-02
 cg2d: Sum(rhs),rhsMax =   7.15388298696185E-13  5.87136916290495E-02
(PID.TID 0000.0001) Did not write pickup because writePickupAtEnd = FALSE
 --> objf_shelfice(bi,bj) =  0.000000000000000D+00
 --> objf_shifwflx(bi,bj) =  0.000000000000000D+00
 --> objf_test(bi,bj)   =  0.369884235779896D+06
 --> objf_tracer(bi,bj) =  0.000000000000000D+00
 --> objf_atl(bi,bj)    =  0.000000000000000D+00
  local fc =  0.369884235779896D+06
 global fc =  0.369884235779896D+06
 ph-check fcpertplus =    369884.23577989574     
 ph-check fcpertminus =    369884.27394914272     
(PID.TID 0000.0001) INI_CG2D: CG2D normalisation factor =  1.0404366262810520E-03
(PID.TID 0000.0001) 
(PID.TID 0000.0001)  nRecords = 243 ; filePrec =  64 ; fileIter =      8640
(PID.TID 0000.0001)     nDims =   2 , dims:
(PID.TID 0000.0001)    1:  50   1  50
(PID.TID 0000.0001)    2: 100   1 100
(PID.TID 0000.0001)     nFlds =  11 , nFl3D =   8 , fields:
(PID.TID 0000.0001)  >Uvel    < >Vvel    < >Theta   < >Salt    < >GuNm1   < >GvNm1   < >GtNm1   < >GsNm1   < >EtaN    < >dEtaHdt < >EtaH    <
(PID.TID 0000.0001)   nTimRec =   0 , timeList:
(PID.TID 0000.0001) READ_MFLDS_3D_RL: read field: "Uvel    ", #   1 in fldList, rec=   1
(PID.TID 0000.0001) READ_MFLDS_3D_RL: read field: "Vvel    ", #   2 in fldList, rec=   2
(PID.TID 0000.0001) READ_MFLDS_3D_RL: read field: "Theta   ", #   3 in fldList, rec=   3
(PID.TID 0000.0001) READ_MFLDS_3D_RL: read field: "Salt    ", #   4 in fldList, rec=   4
(PID.TID 0000.0001) READ_MFLDS_3D_RL: read field: "GuNm1   ", #   5 in fldList, rec=   5
(PID.TID 0000.0001) READ_MFLDS_3D_RL: read field: "GvNm1   ", #   6 in fldList, rec=   6
(PID.TID 0000.0001) READ_MFLDS_3D_RL: read field: "GtNm1   ", #   7 in fldList, rec=   7
(PID.TID 0000.0001) READ_MFLDS_3D_RL: read field: "GsNm1   ", #   8 in fldList, rec=   8
(PID.TID 0000.0001) READ_MFLDS_3D_RL: read field: "EtaN    ", #   9 in fldList, rec= 241
(PID.TID 0000.0001) READ_MFLDS_3D_RL: read field: "dEtaHdt ", #  10 in fldList, rec= 242
(PID.TID 0000.0001) READ_MFLDS_3D_RL: read field: "EtaH    ", #  11 in fldList, rec= 243
(PID.TID 0000.0001) READ_MFLDS_CHECK: - normal end ; reset MFLDS file-name: pickup.0000008640
(PID.TID 0000.0001) // =======================================================
(PID.TID 0000.0001) // Model current state
(PID.TID 0000.0001) // =======================================================
(PID.TID 0000.0001) 
(PID.TID 0000.0001) SOLVE_FOR_PRESSURE: putPmEinXvector =    F
 cg2d: Sum(rhs),rhsMax =   7.04913205714849E-13  5.97849185308842E-02
 cg2d: Sum(rhs),rhsMax =   7.13541828704575E-13  5.85454512053443E-02
 cg2d: Sum(rhs),rhsMax =   7.17536761344478E-13  5.84668673981436E-02
 cg2d: Sum(rhs),rhsMax =   7.19277718982947E-13  5.84481244499682E-02
 cg2d: Sum(rhs),rhsMax =   7.19696925752938E-13  5.83931391338107E-02
 cg2d: Sum(rhs),rhsMax =   7.22103312474770E-13  5.83957489907476E-02
 cg2d: Sum(rhs),rhsMax =   7.17164974867006E-13  5.84578194626880E-02
 cg2d: Sum(rhs),rhsMax =   7.16281817658617E-13  5.85316041985876E-02
 cg2d: Sum(rhs),rhsMax =   7.16922289763222E-13  5.86174987854266E-02
 cg2d: Sum(rhs),rhsMax =   7.21840124938498E-13  5.87136925952965E-02
(PID.TID 0000.0001) Did not write pickup because writePickupAtEnd = FALSE
 --> objf_shelfice(bi,bj) =  0.000000000000000D+00
 --> objf_shifwflx(bi,bj) =  0.000000000000000D+00
 --> objf_test(bi,bj)   =  0.369884312280554D+06
 --> objf_tracer(bi,bj) =  0.000000000000000D+00
 --> objf_atl(bi,bj)    =  0.000000000000000D+00
  local fc =  0.369884312280554D+06
 global fc =  0.369884312280554D+06
grad-res -------------------------------
 grad-res     0    5   24   24   20    1    1    1   3.69884273949E+05  3.69884235780E+05  3.69884312281E+05
 grad-res     0    5    548533    0    1    1    1  -3.82503281840E+00 -3.82503288856E+00 -1.83422648181E-08
(PID.TID 0000.0001)  ADM  ref_cost_function      =  3.69884273949143E+05
(PID.TID 0000.0001)  ADM  adjoint_gradient       = -3.82503281840265E+00
(PID.TID 0000.0001)  ADM  finite-diff_grad       = -3.82503288856242E+00
 ph-grd  ierr ---------------------------
 ph-grd  ierr =            0 , icomp =        48533 , ichknum =            5
(PID.TID 0000.0001) 
(PID.TID 0000.0001) // =======================================================
(PID.TID 0000.0001) // Gradient check results  >>> START <<<
(PID.TID 0000.0001) // =======================================================
(PID.TID 0000.0001) 
(PID.TID 0000.0001)  EPS =   1.000000E-02
(PID.TID 0000.0001) 
(PID.TID 0000.0001) grdchk output h.p:  Id Itile Jtile LAYER   bi   bj   X(Id)           X(Id)+/-EPS
(PID.TID 0000.0001) grdchk output h.c:  Id  FC                   FC1                  FC2
(PID.TID 0000.0001) grdchk output h.g:  Id     FC1-FC2/(2*EPS)      ADJ GRAD(FC)         1-FDGRD/ADGRD
(PID.TID 0000.0001) 
(PID.TID 0000.0001) grdchk output (p):   1    20    24    20    1    1   0.000000000E+00 -1.000000000E-02
(PID.TID 0000.0001) grdchk output (c):   1  3.6988427394914E+05  3.6988423576694E+05  3.6988431229351E+05
(PID.TID 0000.0001) grdchk output (g):   1    -3.8263287075097E+00 -3.8263285575539E+00 -3.9190521938792E-08
(PID.TID 0000.0001) 
(PID.TID 0000.0001) grdchk output (p):   2    21    24    20    1    1   0.000000000E+00 -1.000000000E-02
(PID.TID 0000.0001) grdchk output (c):   2  3.6988427394914E+05  3.6988423577237E+05  3.6988431228808E+05
(PID.TID 0000.0001) grdchk output (g):   2    -3.8257855892880E+00 -3.8257854158308E+00 -4.5338963916564E-08
(PID.TID 0000.0001) 
(PID.TID 0000.0001) grdchk output (p):   3    22    24    20    1    1   0.000000000E+00 -1.000000000E-02
(PID.TID 0000.0001) grdchk output (c):   3  3.6988427394914E+05  3.6988423577597E+05  3.6988431228448E+05
(PID.TID 0000.0001) grdchk output (g):   3    -3.8254256505752E+00 -3.8254255149570E+00 -3.5451802160580E-08
(PID.TID 0000.0001) 
(PID.TID 0000.0001) grdchk output (p):   4    23    24    20    1    1   0.000000000E+00 -1.000000000E-02
(PID.TID 0000.0001) grdchk output (c):   4  3.6988427394914E+05  3.6988423577832E+05  3.6988431228213E+05
(PID.TID 0000.0001) grdchk output (g):   4    -3.8251908496022E+00 -3.8251907110953E+00 -3.6209154785638E-08
(PID.TID 0000.0001) 
(PID.TID 0000.0001) grdchk output (p):   5    24    24    20    1    1   0.000000000E+00 -1.000000000E-02
(PID.TID 0000.0001) grdchk output (c):   5  3.6988427394914E+05  3.6988423577990E+05  3.6988431228055E+05
(PID.TID 0000.0001) grdchk output (g):   5    -3.8250328885624E+00 -3.8250328184027E+00 -1.8342264818116E-08
(PID.TID 0000.0001) 
(PID.TID 0000.0001) grdchk  summary  :  RMS of    5 ratios =  3.6044113262067E-08
(PID.TID 0000.0001) 
(PID.TID 0000.0001) // =======================================================
(PID.TID 0000.0001) // Gradient check results  >>> END <<<
(PID.TID 0000.0001) // =======================================================
(PID.TID 0000.0001) 
(PID.TID 0000.0001)   Seconds in section "ALL                    [THE_MODEL_MAIN]":
(PID.TID 0000.0001)           User time:   339.00999999999999
(PID.TID 0000.0001)         System time:   1.2800000000000000
(PID.TID 0000.0001)     Wall clock time:   345.13921403884888
(PID.TID 0000.0001)          No. starts:           1
(PID.TID 0000.0001)           No. stops:           1
(PID.TID 0000.0001)   Seconds in section "INITIALISE_FIXED       [THE_MODEL_MAIN]":
(PID.TID 0000.0001)           User time:  0.62000000000000000
(PID.TID 0000.0001)         System time:  8.00000000000000017E-002
(PID.TID 0000.0001)     Wall clock time:   2.4753561019897461
(PID.TID 0000.0001)          No. starts:           1
(PID.TID 0000.0001)           No. stops:           1
(PID.TID 0000.0001)   Seconds in section "ADTHE_MAIN_LOOP          [ADJOINT RUN]":
(PID.TID 0000.0001)           User time:   144.91999999999999
(PID.TID 0000.0001)         System time:  0.89000000000000001
(PID.TID 0000.0001)     Wall clock time:   148.20355105400085
(PID.TID 0000.0001)          No. starts:           1
(PID.TID 0000.0001)           No. stops:           1
(PID.TID 0000.0001)   Seconds in section "UPDATE_SURF_DR      [FORWARD_STEP]":
(PID.TID 0000.0001)           User time:  0.19999999999998863
(PID.TID 0000.0001)         System time:   0.0000000000000000
(PID.TID 0000.0001)     Wall clock time:  0.20695590972900391
(PID.TID 0000.0001)          No. starts:         240
(PID.TID 0000.0001)           No. stops:         240
(PID.TID 0000.0001)   Seconds in section "LOAD_FIELDS_DRIVER  [FORWARD_STEP]":
(PID.TID 0000.0001)           User time:   0.0000000000000000
(PID.TID 0000.0001)         System time:   0.0000000000000000
(PID.TID 0000.0001)     Wall clock time:  3.33213806152343750E-003
(PID.TID 0000.0001)          No. starts:         120
(PID.TID 0000.0001)           No. stops:         120
(PID.TID 0000.0001)   Seconds in section "EXTERNAL_FLDS_LOAD [LOAD_FLDS_DRIVER]":
(PID.TID 0000.0001)           User time:   0.0000000000000000
(PID.TID 0000.0001)         System time:   0.0000000000000000
(PID.TID 0000.0001)     Wall clock time:  1.36041641235351563E-003
(PID.TID 0000.0001)          No. starts:         140
(PID.TID 0000.0001)           No. stops:         140
(PID.TID 0000.0001)   Seconds in section "I/O (WRITE)        [ADJOINT LOOP]":
(PID.TID 0000.0001)           User time:   0.0000000000000000
(PID.TID 0000.0001)         System time:   0.0000000000000000
(PID.TID 0000.0001)     Wall clock time:  1.61910057067871094E-003
(PID.TID 0000.0001)          No. starts:         180
(PID.TID 0000.0001)           No. stops:         180
(PID.TID 0000.0001)   Seconds in section "DO_ATMOSPHERIC_PHYS [FORWARD_STEP]":
(PID.TID 0000.0001)           User time:   0.0000000000000000
(PID.TID 0000.0001)         System time:   0.0000000000000000
(PID.TID 0000.0001)     Wall clock time:  1.08170509338378906E-003
(PID.TID 0000.0001)          No. starts:         120
(PID.TID 0000.0001)           No. stops:         120
(PID.TID 0000.0001)   Seconds in section "DO_OCEANIC_PHYS     [FORWARD_STEP]":
(PID.TID 0000.0001)           User time:   5.3799999999998818
(PID.TID 0000.0001)         System time:  1.00000000000000089E-002
(PID.TID 0000.0001)     Wall clock time:   5.2865447998046875
(PID.TID 0000.0001)          No. starts:         120
(PID.TID 0000.0001)           No. stops:         120
(PID.TID 0000.0001)   Seconds in section "SHELFICE_THERMODYNAMICS [DO_OCEANIC_PHYS]":
(PID.TID 0000.0001)           User time:  0.72000000000008413
(PID.TID 0000.0001)         System time:   0.0000000000000000
(PID.TID 0000.0001)     Wall clock time:  0.67547845840454102
(PID.TID 0000.0001)          No. starts:         130
(PID.TID 0000.0001)           No. stops:         130
(PID.TID 0000.0001)   Seconds in section "DYNAMICS            [FORWARD_STEP]":
(PID.TID 0000.0001)           User time:   86.439999999999998
(PID.TID 0000.0001)         System time:  6.00000000000000533E-002
(PID.TID 0000.0001)     Wall clock time:   86.944515228271484
(PID.TID 0000.0001)          No. starts:         120
(PID.TID 0000.0001)           No. stops:         120
(PID.TID 0000.0001)   Seconds in section "SOLVE_FOR_PRESSURE  [FORWARD_STEP]":
(PID.TID 0000.0001)           User time:   50.260000000000161
(PID.TID 0000.0001)         System time:  4.00000000000000355E-002
(PID.TID 0000.0001)     Wall clock time:   50.566061258316040
(PID.TID 0000.0001)          No. starts:         120
(PID.TID 0000.0001)           No. stops:         120
(PID.TID 0000.0001)   Seconds in section "MOM_CORRECTION_STEP [FORWARD_STEP]":
(PID.TID 0000.0001)           User time:   1.9100000000000819
(PID.TID 0000.0001)         System time:   0.0000000000000000
(PID.TID 0000.0001)     Wall clock time:   1.8724904060363770
(PID.TID 0000.0001)          No. starts:         120
(PID.TID 0000.0001)           No. stops:         120
(PID.TID 0000.0001)   Seconds in section "INTEGR_CONTINUITY   [FORWARD_STEP]":
(PID.TID 0000.0001)           User time:   6.0999999999999659
(PID.TID 0000.0001)         System time:  2.00000000000000178E-002
(PID.TID 0000.0001)     Wall clock time:   6.1726424694061279
(PID.TID 0000.0001)          No. starts:         120
(PID.TID 0000.0001)           No. stops:         120
(PID.TID 0000.0001)   Seconds in section "CALC_SURF_DR      [FORWARD_STEP]":
(PID.TID 0000.0001)           User time:  0.17999999999994998
(PID.TID 0000.0001)         System time:   0.0000000000000000
(PID.TID 0000.0001)     Wall clock time:  0.23650121688842773
(PID.TID 0000.0001)          No. starts:         120
(PID.TID 0000.0001)           No. stops:         120
(PID.TID 0000.0001)   Seconds in section "BLOCKING_EXCHANGES  [FORWARD_STEP]":
(PID.TID 0000.0001)           User time:   1.4600000000000932
(PID.TID 0000.0001)         System time:   0.0000000000000000
(PID.TID 0000.0001)     Wall clock time:   1.4534449577331543
(PID.TID 0000.0001)          No. starts:         240
(PID.TID 0000.0001)           No. stops:         240
(PID.TID 0000.0001)   Seconds in section "THERMODYNAMICS      [FORWARD_STEP]":
(PID.TID 0000.0001)           User time:   48.950000000000387
(PID.TID 0000.0001)         System time:  8.99999999999998579E-002
(PID.TID 0000.0001)     Wall clock time:   49.170950651168823
(PID.TID 0000.0001)          No. starts:         120
(PID.TID 0000.0001)           No. stops:         120
(PID.TID 0000.0001)   Seconds in section "TRC_CORRECTION_STEP [FORWARD_STEP]":
(PID.TID 0000.0001)           User time:   11.919999999999845
(PID.TID 0000.0001)         System time:  2.00000000000000178E-002
(PID.TID 0000.0001)     Wall clock time:   11.964798212051392
(PID.TID 0000.0001)          No. starts:         120
(PID.TID 0000.0001)           No. stops:         120
(PID.TID 0000.0001)   Seconds in section "MONITOR             [FORWARD_STEP]":
(PID.TID 0000.0001)           User time:   2.3900000000000432
(PID.TID 0000.0001)         System time:   0.0000000000000000
(PID.TID 0000.0001)     Wall clock time:   2.3978569507598877
(PID.TID 0000.0001)          No. starts:         120
(PID.TID 0000.0001)           No. stops:         120
(PID.TID 0000.0001)   Seconds in section "COST_TILE           [FORWARD_STEP]":
(PID.TID 0000.0001)           User time:   5.2999999999998408
(PID.TID 0000.0001)         System time:  1.00000000000000089E-002
(PID.TID 0000.0001)     Wall clock time:   5.3746962547302246
(PID.TID 0000.0001)          No. starts:         120
(PID.TID 0000.0001)           No. stops:         120
(PID.TID 0000.0001)   Seconds in section "DO_THE_MODEL_IO     [FORWARD_STEP]":
(PID.TID 0000.0001)           User time:  8.00000000000409273E-002
(PID.TID 0000.0001)         System time:  1.00000000000000089E-002
(PID.TID 0000.0001)     Wall clock time:  0.80784249305725098
(PID.TID 0000.0001)          No. starts:         120
(PID.TID 0000.0001)           No. stops:         120
(PID.TID 0000.0001)   Seconds in section "DO_WRITE_PICKUP     [FORWARD_STEP]":
(PID.TID 0000.0001)           User time:  0.11000000000001364
(PID.TID 0000.0001)         System time:  2.00000000000000178E-002
(PID.TID 0000.0001)     Wall clock time:  0.13505291938781738
(PID.TID 0000.0001)          No. starts:         120
(PID.TID 0000.0001)           No. stops:         120
(PID.TID 0000.0001)   Seconds in section "GRDCHK_MAIN         [THE_MODEL_MAIN]":
(PID.TID 0000.0001)           User time:   193.47000000000000
(PID.TID 0000.0001)         System time:  0.31000000000000005
(PID.TID 0000.0001)     Wall clock time:   194.45899200439453
(PID.TID 0000.0001)          No. starts:           1
(PID.TID 0000.0001)           No. stops:           1
(PID.TID 0000.0001)   Seconds in section "INITIALISE_VARIA    [THE_MAIN_LOOP]":
(PID.TID 0000.0001)           User time:   3.3499999999999659
(PID.TID 0000.0001)         System time:  7.00000000000000622E-002
(PID.TID 0000.0001)     Wall clock time:   3.4257869720458984
(PID.TID 0000.0001)          No. starts:          10
(PID.TID 0000.0001)           No. stops:          10
(PID.TID 0000.0001)   Seconds in section "MAIN LOOP           [THE_MAIN_LOOP]":
(PID.TID 0000.0001)           User time:   189.65999999999997
(PID.TID 0000.0001)         System time:  0.21999999999999997
(PID.TID 0000.0001)     Wall clock time:   190.54369044303894
(PID.TID 0000.0001)          No. starts:          10
(PID.TID 0000.0001)           No. stops:          10
(PID.TID 0000.0001)   Seconds in section "FORWARD_STEP        [THE_MAIN_LOOP]":
(PID.TID 0000.0001)           User time:   181.83999999999997
(PID.TID 0000.0001)         System time:  0.20999999999999996
(PID.TID 0000.0001)     Wall clock time:   182.68447327613831
(PID.TID 0000.0001)          No. starts:         100
(PID.TID 0000.0001)           No. stops:         100
(PID.TID 0000.0001)   Seconds in section "COST_FINAL         [ADJOINT SPIN-DOWN]":
(PID.TID 0000.0001)           User time:  7.99999999999840838E-002
(PID.TID 0000.0001)         System time:   0.0000000000000000
(PID.TID 0000.0001)     Wall clock time:  7.34724998474121094E-002
(PID.TID 0000.0001)          No. starts:          10
(PID.TID 0000.0001)           No. stops:          10
(PID.TID 0000.0001) // ======================================================
(PID.TID 0000.0001) // Tile <-> Tile communication statistics
(PID.TID 0000.0001) // ======================================================
(PID.TID 0000.0001) // o Tile number: 000001
(PID.TID 0000.0001) //         No. X exchanges =              0
(PID.TID 0000.0001) //            Max. X spins =              0
(PID.TID 0000.0001) //            Min. X spins =     1000000000
(PID.TID 0000.0001) //          Total. X spins =              0
(PID.TID 0000.0001) //            Avg. X spins =       0.00E+00
(PID.TID 0000.0001) //         No. Y exchanges =              0
(PID.TID 0000.0001) //            Max. Y spins =              0
(PID.TID 0000.0001) //            Min. Y spins =     1000000000
(PID.TID 0000.0001) //          Total. Y spins =              0
(PID.TID 0000.0001) //            Avg. Y spins =       0.00E+00
(PID.TID 0000.0001) // o Thread number: 000001
(PID.TID 0000.0001) //            No. barriers =         183388
(PID.TID 0000.0001) //      Max. barrier spins =              1
(PID.TID 0000.0001) //      Min. barrier spins =              1
(PID.TID 0000.0001) //     Total barrier spins =         183388
(PID.TID 0000.0001) //      Avg. barrier spins =       1.00E+00
PROGRAM MAIN: Execution ended Normally
