(PID.TID 0000.0001) 
(PID.TID 0000.0001) // ======================================================
(PID.TID 0000.0001) //                      MITgcm UV
(PID.TID 0000.0001) //                      =========
(PID.TID 0000.0001) // ======================================================
(PID.TID 0000.0001) // execution environment starting up...
(PID.TID 0000.0001) 
(PID.TID 0000.0001) // MITgcmUV version:  checkpoint63m
(PID.TID 0000.0001) // Build user:        jmc
(PID.TID 0000.0001) // Build host:        baudelaire
(PID.TID 0000.0001) // Build date:        Thu May 31 23:40:33 EDT 2012
(PID.TID 0000.0001) 
(PID.TID 0000.0001) // =======================================================
(PID.TID 0000.0001) // Execution Environment parameter file "eedata"
(PID.TID 0000.0001) // =======================================================
(PID.TID 0000.0001) ># Example "eedata" file
(PID.TID 0000.0001) ># Lines beginning "#" are comments
(PID.TID 0000.0001) ># nTx - No. threads per process in X
(PID.TID 0000.0001) ># nTy - No. threads per process in Y
(PID.TID 0000.0001) > &EEPARMS
(PID.TID 0000.0001) > /
(PID.TID 0000.0001) ># Note: Some systems use & as the
(PID.TID 0000.0001) ># namelist terminator. Other systems
(PID.TID 0000.0001) ># use a / character (as shown here).
(PID.TID 0000.0001) 
(PID.TID 0000.0001) // =======================================================
(PID.TID 0000.0001) // Computational Grid Specification ( see files "SIZE.h" )
(PID.TID 0000.0001) //                                  ( and "eedata"       )
(PID.TID 0000.0001) // =======================================================
(PID.TID 0000.0001)      nPx =    1 ; /* No. processes in X */
(PID.TID 0000.0001)      nPy =    1 ; /* No. processes in Y */
(PID.TID 0000.0001)      nSx =    1 ; /* No. tiles in X per process */
(PID.TID 0000.0001)      nSy =    1 ; /* No. tiles in Y per process */
(PID.TID 0000.0001)      sNx =   50 ; /* Tile size in X */
(PID.TID 0000.0001)      sNy =  100 ; /* Tile size in Y */
(PID.TID 0000.0001)      OLx =    3 ; /* Tile overlap distance in X */
(PID.TID 0000.0001)      OLy =    3 ; /* Tile overlap distance in Y */
(PID.TID 0000.0001)      nTx =    1 ; /* No. threads in X per process */
(PID.TID 0000.0001)      nTy =    1 ; /* No. threads in Y per process */
(PID.TID 0000.0001)       Nr =   30 ; /* No. levels in the vertical   */
(PID.TID 0000.0001)       Nx =   50 ; /* Total domain size in X ( = nPx*nSx*sNx ) */
(PID.TID 0000.0001)       Ny =  100 ; /* Total domain size in Y ( = nPy*nSy*sNy ) */
(PID.TID 0000.0001)   nTiles =    1 ; /* Total no. tiles per process ( = nSx*nSy ) */
(PID.TID 0000.0001)   nProcs =    1 ; /* Total no. processes ( = nPx*nPy ) */
(PID.TID 0000.0001) nThreads =    1 ; /* Total no. threads per process ( = nTx*nTy ) */
(PID.TID 0000.0001) usingMPI =    F ; /* Flag used to control whether MPI is in use */
(PID.TID 0000.0001)                   /*  note: To execute a program with MPI calls */
(PID.TID 0000.0001)                   /*  it must be launched appropriately e.g     */
(PID.TID 0000.0001)                   /*  "mpirun -np 64 ......"                    */
(PID.TID 0000.0001) useCoupler=    F ;/* Flag used to control communications with   */
(PID.TID 0000.0001)                   /*  other model components, through a coupler */
(PID.TID 0000.0001) debugMode =    F ; /* print debug msg. (sequence of S/R calls)  */
(PID.TID 0000.0001) printMapIncludesZeros=    F ; /* print zeros in Std.Output maps */
(PID.TID 0000.0001) maxLengthPrt1D=   65 /* maxLength of 1D array printed to StdOut */
(PID.TID 0000.0001) 
(PID.TID 0000.0001) // ======================================================
(PID.TID 0000.0001) // Mapping of tiles to threads
(PID.TID 0000.0001) // ======================================================
(PID.TID 0000.0001) // -o- Thread   1, tiles (   1:   1,   1:   1)
(PID.TID 0000.0001) 
(PID.TID 0000.0001) // ======================================================
(PID.TID 0000.0001) // Tile <-> Tile connectvity table
(PID.TID 0000.0001) // ======================================================
(PID.TID 0000.0001) // Tile number: 000001 (process no. = 000001)
(PID.TID 0000.0001) //        WEST: Tile = 000001, Process = 000001, Comm = put
(PID.TID 0000.0001) //                bi = 000001, bj = 000001
(PID.TID 0000.0001) //        EAST: Tile = 000001, Process = 000001, Comm = put
(PID.TID 0000.0001) //                bi = 000001, bj = 000001
(PID.TID 0000.0001) //       SOUTH: Tile = 000001, Process = 000001, Comm = put
(PID.TID 0000.0001) //                bi = 000001, bj = 000001
(PID.TID 0000.0001) //       NORTH: Tile = 000001, Process = 000001, Comm = put
(PID.TID 0000.0001) //                bi = 000001, bj = 000001
(PID.TID 0000.0001) 
(PID.TID 0000.0001)  INI_PARMS: opening model parameter file "data"
(PID.TID 0000.0001)  OPEN_COPY_DATA_FILE: opening file data
(PID.TID 0000.0001) // =======================================================
(PID.TID 0000.0001) // Parameter file "data"
(PID.TID 0000.0001) // =======================================================
(PID.TID 0000.0001) ># ====================
(PID.TID 0000.0001) ># | Model parameters |
(PID.TID 0000.0001) ># ====================
(PID.TID 0000.0001) >#
(PID.TID 0000.0001) ># Continuous equation parameters
(PID.TID 0000.0001) > &PARM01
(PID.TID 0000.0001) > Tref = 30*-1.9,
(PID.TID 0000.0001) > Sref = 30*34.4,
(PID.TID 0000.0001) > viscAz=1.E-3,
(PID.TID 0000.0001) > viscAh=600.0,
(PID.TID 0000.0001) > no_slip_sides=.FALSE.,
(PID.TID 0000.0001) > no_slip_bottom=.FALSE.,
(PID.TID 0000.0001) > diffKhT=100.0,
(PID.TID 0000.0001) > diffKzT=5.E-5,
(PID.TID 0000.0001) > diffKhS=100.0,
(PID.TID 0000.0001) > diffKzS=5.E-5,
(PID.TID 0000.0001) > bottomDragQuadratic=2.5E-3,
(PID.TID 0000.0001) > eosType='JMD95Z',
(PID.TID 0000.0001) > HeatCapacity_cp = 3974.0,
(PID.TID 0000.0001) > rhoConst=1030.,
(PID.TID 0000.0001) > gravity=9.81,
(PID.TID 0000.0001) > convertFW2Salt = 33.4,
(PID.TID 0000.0001) > implicitFreeSurface=.TRUE.,
(PID.TID 0000.0001) > exactConserv=.TRUE.,
(PID.TID 0000.0001) > hFacMin=0.10,
(PID.TID 0000.0001) > nonHydrostatic=.FALSE.,
(PID.TID 0000.0001) > readBinaryPrec=64,
(PID.TID 0000.0001) > useCDScheme = .TRUE.,
(PID.TID 0000.0001) >#ph(
(PID.TID 0000.0001) > implicitDiffusion=.TRUE.,
(PID.TID 0000.0001) ># ivdc_kappa = 7200.,
(PID.TID 0000.0001) > staggerTimeStep=.TRUE.,
(PID.TID 0000.0001) > vectorInvariantMomentum=.TRUE.,
(PID.TID 0000.0001) > nonlinFreeSurf=2,
(PID.TID 0000.0001) > hFacInf=0.05,
(PID.TID 0000.0001) > hFacSup=2.0,
(PID.TID 0000.0001) >#ph)
(PID.TID 0000.0001) > /
(PID.TID 0000.0001) >
(PID.TID 0000.0001) ># Elliptic solver parameters
(PID.TID 0000.0001) > &PARM02
(PID.TID 0000.0001) > cg2dMaxIters=1000,
(PID.TID 0000.0001) > cg2dTargetResidual=1.E-13,
(PID.TID 0000.0001) > /
(PID.TID 0000.0001) >
(PID.TID 0000.0001) ># Time stepping parameters
(PID.TID 0000.0001) > &PARM03
(PID.TID 0000.0001) > nIter0=8640,
(PID.TID 0000.0001) > nTimeSteps=10,
(PID.TID 0000.0001) > deltaT=1800.0,
(PID.TID 0000.0001) > abEps=0.1,
(PID.TID 0000.0001) > cAdjFreq = 1.,
(PID.TID 0000.0001) > tauCD = 400000.,
(PID.TID 0000.0001) > pChkptFreq=0.0,
(PID.TID 0000.0001) > chkptFreq=0.0,
(PID.TID 0000.0001) > dumpFreq=0.0,
(PID.TID 0000.0001) > taveFreq=0.0,
(PID.TID 0000.0001) > monitorFreq=1.,
(PID.TID 0000.0001) > monitorSelect=2,
(PID.TID 0000.0001) > adjMonitorFreq=1800.,
(PID.TID 0000.0001) > /
(PID.TID 0000.0001) >
(PID.TID 0000.0001) ># Gridding parameters
(PID.TID 0000.0001) > &PARM04
(PID.TID 0000.0001) > usingSphericalPolarGrid=.TRUE.,
(PID.TID 0000.0001) > ygOrigin = -80.0,
(PID.TID 0000.0001) > delX=50*0.3,
(PID.TID 0000.0001) > delY=100*0.1,
(PID.TID 0000.0001) > delZ=30*30.0,
(PID.TID 0000.0001) > /
(PID.TID 0000.0001) >
(PID.TID 0000.0001) ># Input datasets
(PID.TID 0000.0001) > &PARM05
(PID.TID 0000.0001) > bathyFile='bathy.box',
(PID.TID 0000.0001) > /
(PID.TID 0000.0001) 
(PID.TID 0000.0001)  INI_PARMS ; starts to read PARM01
(PID.TID 0000.0001)  INI_PARMS ; read PARM01 : OK
(PID.TID 0000.0001)  INI_PARMS ; starts to read PARM02
(PID.TID 0000.0001)  INI_PARMS ; read PARM02 : OK
(PID.TID 0000.0001)  INI_PARMS ; starts to read PARM03
(PID.TID 0000.0001)  INI_PARMS ; read PARM03 : OK
(PID.TID 0000.0001)  INI_PARMS ; starts to read PARM04
(PID.TID 0000.0001)  INI_PARMS ; read PARM04 : OK
(PID.TID 0000.0001)  INI_PARMS ; starts to read PARM05
(PID.TID 0000.0001)  INI_PARMS ; read PARM05 : OK
(PID.TID 0000.0001)  INI_PARMS: finished reading file "data"
(PID.TID 0000.0001)  PACKAGES_BOOT: opening data.pkg
(PID.TID 0000.0001)  OPEN_COPY_DATA_FILE: opening file data.pkg
(PID.TID 0000.0001) // =======================================================
(PID.TID 0000.0001) // Parameter file "data.pkg"
(PID.TID 0000.0001) // =======================================================
(PID.TID 0000.0001) ># Packages
(PID.TID 0000.0001) > &PACKAGES
(PID.TID 0000.0001) >#useMNC=.TRUE.,
(PID.TID 0000.0001) > useShelfIce=.TRUE.,
(PID.TID 0000.0001) > useGrdchk=.TRUE.,
(PID.TID 0000.0001) > /
(PID.TID 0000.0001) 
(PID.TID 0000.0001)  PACKAGES_BOOT: finished reading data.pkg
(PID.TID 0000.0001)  SHELFICE_READPARMS: opening data.shelfice
(PID.TID 0000.0001)  OPEN_COPY_DATA_FILE: opening file data.shelfice
(PID.TID 0000.0001) // =======================================================
(PID.TID 0000.0001) // Parameter file "data.shelfice"
(PID.TID 0000.0001) // =======================================================
(PID.TID 0000.0001) ># ===================================
(PID.TID 0000.0001) ># | Parameters for SHELFICE package |
(PID.TID 0000.0001) ># ===================================
(PID.TID 0000.0001) > &SHELFICE_PARM01
(PID.TID 0000.0001) > SHELFICEboundaryLayer = .TRUE.,
(PID.TID 0000.0001) > SHELFICEtopoFile='icetopo.exp1',
(PID.TID 0000.0001) > SHELFICEloadAnomalyFile = 'phi0surf.exp1.jmd95z',
(PID.TID 0000.0001) > useISOMIPTD = .FALSE.,
(PID.TID 0000.0001) > no_slip_shelfice = .false.,
(PID.TID 0000.0001) > SHELFICEwriteState = .TRUE.,
(PID.TID 0000.0001) > /
(PID.TID 0000.0001) 
(PID.TID 0000.0001)  SHELFICE_READPARMS: finished reading data.shelfice
(PID.TID 0000.0001) OPTIM_READPARMS: opening data.optim
(PID.TID 0000.0001)  OPEN_COPY_DATA_FILE: opening file data.optim
(PID.TID 0000.0001) // =======================================================
(PID.TID 0000.0001) // Parameter file "data.optim"
(PID.TID 0000.0001) // =======================================================
(PID.TID 0000.0001) > &OPTIM
(PID.TID 0000.0001) > optimcycle=0,
(PID.TID 0000.0001) > /
(PID.TID 0000.0001) 
(PID.TID 0000.0001) OPTIM_READPARMS: finished reading data.optim
(PID.TID 0000.0001) CTRL_READPARMS: opening data.ctrl
(PID.TID 0000.0001)  OPEN_COPY_DATA_FILE: opening file data.ctrl
(PID.TID 0000.0001) // =======================================================
(PID.TID 0000.0001) // Parameter file "data.ctrl"
(PID.TID 0000.0001) // =======================================================
(PID.TID 0000.0001) >#
(PID.TID 0000.0001) >#
(PID.TID 0000.0001) ># *********************
(PID.TID 0000.0001) ># ECCO controlvariables
(PID.TID 0000.0001) ># *********************
(PID.TID 0000.0001) > &CTRL_NML
(PID.TID 0000.0001) > xx_theta_file      ='xx_theta',
(PID.TID 0000.0001) > xx_salt_file       ='xx_salt',
(PID.TID 0000.0001) >#
(PID.TID 0000.0001) > xx_hfluxstartdate1 = 19790101,
(PID.TID 0000.0001) > xx_hfluxstartdate2 = 000000,
(PID.TID 0000.0001) > xx_hfluxperiod     = 864000.0,
(PID.TID 0000.0001) > xx_hflux_file      = 'xx_hfl',
(PID.TID 0000.0001) >#
(PID.TID 0000.0001) > xx_sfluxstartdate1 = 19790101,
(PID.TID 0000.0001) > xx_sfluxstartdate2 = 000000,
(PID.TID 0000.0001) > xx_sfluxperiod     = 864000.0,
(PID.TID 0000.0001) > xx_sflux_file      = 'xx_sfl',
(PID.TID 0000.0001) >#
(PID.TID 0000.0001) > xx_tauustartdate1 = 19790101,
(PID.TID 0000.0001) > xx_tauustartdate2 = 000000,
(PID.TID 0000.0001) > xx_tauuperiod     = 864000.0,
(PID.TID 0000.0001) > xx_tauu_file      = 'xx_tauu',
(PID.TID 0000.0001) >#
(PID.TID 0000.0001) > xx_tauvstartdate1 = 19790101,
(PID.TID 0000.0001) > xx_tauvstartdate2 = 000000,
(PID.TID 0000.0001) > xx_tauvperiod     = 864000.0,
(PID.TID 0000.0001) > xx_tauv_file      = 'xx_tauv',
(PID.TID 0000.0001) >#
(PID.TID 0000.0001) > xx_atempstartdate1 = 19790101,
(PID.TID 0000.0001) > xx_atempstartdate2 = 000000,
(PID.TID 0000.0001) > xx_atempperiod     = 864000.0,
(PID.TID 0000.0001) > xx_atemp_file      = 'xx_atemp',
(PID.TID 0000.0001) >#
(PID.TID 0000.0001) > xx_aqhstartdate1 = 19790101,
(PID.TID 0000.0001) > xx_aqhstartdate2 = 000000,
(PID.TID 0000.0001) > xx_aqhperiod     = 864000.0,
(PID.TID 0000.0001) > xx_aqh_file      = 'xx_aqh',
(PID.TID 0000.0001) >#
(PID.TID 0000.0001) > xx_precipstartdate1 = 19790101,
(PID.TID 0000.0001) > xx_precipstartdate2 = 000000,
(PID.TID 0000.0001) > xx_precipperiod     = 864000.0,
(PID.TID 0000.0001) > xx_precip_file      = 'xx_precip',
(PID.TID 0000.0001) >#
(PID.TID 0000.0001) > xx_swdownstartdate1 = 19790101,
(PID.TID 0000.0001) > xx_swdownstartdate2 = 000000,
(PID.TID 0000.0001) > xx_swdownperiod     = 864000.0,
(PID.TID 0000.0001) > xx_swdown_file      = 'xx_swdown',
(PID.TID 0000.0001) >#
(PID.TID 0000.0001) > xx_uwindstartdate1 = 19790101,
(PID.TID 0000.0001) > xx_uwindstartdate2 = 000000,
(PID.TID 0000.0001) > xx_uwindperiod     = 864000.0,
(PID.TID 0000.0001) > xx_uwind_file      = 'xx_uwind',
(PID.TID 0000.0001) >#
(PID.TID 0000.0001) > xx_vwindstartdate1 = 19790101,
(PID.TID 0000.0001) > xx_vwindstartdate2 = 000000,
(PID.TID 0000.0001) > xx_vwindperiod     = 864000.0,
(PID.TID 0000.0001) > xx_vwind_file      = 'xx_vwind',
(PID.TID 0000.0001) >#
(PID.TID 0000.0001) > xx_sststartdate1 = 19790101,
(PID.TID 0000.0001) > xx_sststartdate2 = 000000,
(PID.TID 0000.0001) > xx_sstperiod     = 864000.0,
(PID.TID 0000.0001) > xx_sst_file      = 'xx_sst',
(PID.TID 0000.0001) >#
(PID.TID 0000.0001) > xx_sssstartdate1 = 19790101,
(PID.TID 0000.0001) > xx_sssstartdate2 = 000000,
(PID.TID 0000.0001) > xx_sssperiod     = 864000.0,
(PID.TID 0000.0001) > xx_sss_file      = 'xx_sss',
(PID.TID 0000.0001) > /
(PID.TID 0000.0001) >#
(PID.TID 0000.0001) ># *********************
(PID.TID 0000.0001) ># names for ctrl_pack/unpack
(PID.TID 0000.0001) ># *********************
(PID.TID 0000.0001) > &CTRL_PACKNAMES
(PID.TID 0000.0001) > /
(PID.TID 0000.0001) 
(PID.TID 0000.0001) CTRL_READPARMS: finished reading data.ctrl
(PID.TID 0000.0001) COST_READPARMS: opening data.cost
(PID.TID 0000.0001)  OPEN_COPY_DATA_FILE: opening file data.cost
(PID.TID 0000.0001) // =======================================================
(PID.TID 0000.0001) // Parameter file "data.cost"
(PID.TID 0000.0001) // =======================================================
(PID.TID 0000.0001) >#
(PID.TID 0000.0001) >#
(PID.TID 0000.0001) ># ******************
(PID.TID 0000.0001) ># cost function
(PID.TID 0000.0001) ># ******************
(PID.TID 0000.0001) > &COST_NML
(PID.TID 0000.0001) >#revert to default 1 month
(PID.TID 0000.0001) ># lastinterval=7776000.,
(PID.TID 0000.0001) > mult_test=1.,
(PID.TID 0000.0001) > /
(PID.TID 0000.0001) 
(PID.TID 0000.0001) COST_READPARMS: finished reading data.cost
(PID.TID 0000.0001) GRDCHK_READPARMS: opening data.grdchk
(PID.TID 0000.0001)  OPEN_COPY_DATA_FILE: opening file data.grdchk
(PID.TID 0000.0001) // =======================================================
(PID.TID 0000.0001) // Parameter file "data.grdchk"
(PID.TID 0000.0001) // =======================================================
(PID.TID 0000.0001) ># *******************
(PID.TID 0000.0001) ># ECCO gradient check
(PID.TID 0000.0001) ># *******************
(PID.TID 0000.0001) > &GRDCHK_NML
(PID.TID 0000.0001) > grdchk_eps       = 1.d-2,
(PID.TID 0000.0001) >  iglopos         = 20,
(PID.TID 0000.0001) >  jglopos         = 24,
(PID.TID 0000.0001) >  kglopos         = 20,
(PID.TID 0000.0001) ># nbeg             = 1,
(PID.TID 0000.0001) > nstep            = 1,
(PID.TID 0000.0001) > nend             = 4,
(PID.TID 0000.0001) > grdchkvarindex   = 1,
(PID.TID 0000.0001) > /
(PID.TID 0000.0001) 
(PID.TID 0000.0001) GRDCHK_READPARMS: finished reading data.grdchk
(PID.TID 0000.0001) 
(PID.TID 0000.0001) // =======================================================
(PID.TID 0000.0001) // Gradient check configuration  >>> START <<<
(PID.TID 0000.0001) // =======================================================
(PID.TID 0000.0001) 
(PID.TID 0000.0001)   eps:                              0.100E-01
(PID.TID 0000.0001)   First location:                           0
(PID.TID 0000.0001)   Last location:                            4
(PID.TID 0000.0001)   Increment:                                1
(PID.TID 0000.0001)   grdchkWhichProc:                          0
(PID.TID 0000.0001)   iLocTile =       1  ,    jLocTile =       1
(PID.TID 0000.0001) 
(PID.TID 0000.0001) // =======================================================
(PID.TID 0000.0001) // Gradient check configuration  >>> END <<<
(PID.TID 0000.0001) // =======================================================
(PID.TID 0000.0001) 
(PID.TID 0000.0001) SET_PARMS: done
(PID.TID 0000.0001) Enter INI_VERTICAL_GRID: setInterFDr=    T ; setCenterDr=    F
(PID.TID 0000.0001) %MON XC_max                       =   1.4850000000000E+01
(PID.TID 0000.0001) %MON XC_min                       =   1.5000000000000E-01
(PID.TID 0000.0001) %MON XC_mean                      =   7.5000000000000E+00
(PID.TID 0000.0001) %MON XC_sd                        =   4.3292609068985E+00
(PID.TID 0000.0001) %MON XG_max                       =   1.4700000000000E+01
(PID.TID 0000.0001) %MON XG_min                       =   1.1102230246252E-16
(PID.TID 0000.0001) %MON XG_mean                      =   7.3500000000000E+00
(PID.TID 0000.0001) %MON XG_sd                        =   4.3292609068985E+00
(PID.TID 0000.0001) %MON DXC_max                      =   1.1380125394806E+04
(PID.TID 0000.0001) %MON DXC_min                      =   5.8203914905589E+03
(PID.TID 0000.0001) %MON DXC_mean                     =   8.6215028627210E+03
(PID.TID 0000.0001) %MON DXC_sd                       =   1.6219001271572E+03
(PID.TID 0000.0001) %MON DXF_max                      =   1.1380125394806E+04
(PID.TID 0000.0001) %MON DXF_min                      =   5.8203914905589E+03
(PID.TID 0000.0001) %MON DXF_mean                     =   8.6215028627210E+03
(PID.TID 0000.0001) %MON DXF_sd                       =   1.6219001271572E+03
(PID.TID 0000.0001) %MON DXG_max                      =   1.1352761512017E+04
(PID.TID 0000.0001) %MON DXG_min                      =   5.7917296935586E+03
(PID.TID 0000.0001) %MON DXG_mean                     =   8.5934208253080E+03
(PID.TID 0000.0001) %MON DXG_sd                       =   1.6222785520817E+03
(PID.TID 0000.0001) %MON DXV_max                      =   1.1352761512017E+04
(PID.TID 0000.0001) %MON DXV_min                      =   5.7917296935586E+03
(PID.TID 0000.0001) %MON DXV_mean                     =   8.5934208253080E+03
(PID.TID 0000.0001) %MON DXV_sd                       =   1.6222785520817E+03
(PID.TID 0000.0001) %MON YC_max                       =  -7.0050000000001E+01
(PID.TID 0000.0001) %MON YC_min                       =  -7.9950000000000E+01
(PID.TID 0000.0001) %MON YC_mean                      =  -7.5000000000000E+01
(PID.TID 0000.0001) %MON YC_sd                        =   2.8866070047720E+00
(PID.TID 0000.0001) %MON YG_max                       =  -7.0100000000001E+01
(PID.TID 0000.0001) %MON YG_min                       =  -8.0000000000000E+01
(PID.TID 0000.0001) %MON YG_mean                      =  -7.5050000000000E+01
(PID.TID 0000.0001) %MON YG_sd                        =   2.8866070047720E+00
(PID.TID 0000.0001) %MON DYC_max                      =   1.1117747335204E+04
(PID.TID 0000.0001) %MON DYC_min                      =   1.1117747335204E+04
(PID.TID 0000.0001) %MON DYC_mean                     =   1.1117747335203E+04
(PID.TID 0000.0001) %MON DYC_sd                       =   7.4760464485735E-10
(PID.TID 0000.0001) %MON DYF_max                      =   1.1117747335204E+04
(PID.TID 0000.0001) %MON DYF_min                      =   1.1117747335204E+04
(PID.TID 0000.0001) %MON DYF_mean                     =   1.1117747335203E+04
(PID.TID 0000.0001) %MON DYF_sd                       =   7.4760464485735E-10
(PID.TID 0000.0001) %MON DYG_max                      =   1.1117747335204E+04
(PID.TID 0000.0001) %MON DYG_min                      =   1.1117747335204E+04
(PID.TID 0000.0001) %MON DYG_mean                     =   1.1117747335203E+04
(PID.TID 0000.0001) %MON DYG_sd                       =   7.4760464485735E-10
(PID.TID 0000.0001) %MON DYU_max                      =   1.1117747335204E+04
(PID.TID 0000.0001) %MON DYU_min                      =   1.1117747335204E+04
(PID.TID 0000.0001) %MON DYU_mean                     =   1.1117747335203E+04
(PID.TID 0000.0001) %MON DYU_sd                       =   7.4760464485735E-10
(PID.TID 0000.0001) %MON RA_max                       =   1.2652134272379E+08
(PID.TID 0000.0001) %MON RA_min                       =   6.4709633770803E+07
(PID.TID 0000.0001) %MON RA_mean                      =   9.5851678311588E+07
(PID.TID 0000.0001) %MON RA_sd                        =   1.8031873527992E+07
(PID.TID 0000.0001) %MON RAW_max                      =   1.2652134272379E+08
(PID.TID 0000.0001) %MON RAW_min                      =   6.4709633770803E+07
(PID.TID 0000.0001) %MON RAW_mean                     =   9.5851678311588E+07
(PID.TID 0000.0001) %MON RAW_sd                       =   1.8031873527992E+07
(PID.TID 0000.0001) %MON RAS_max                      =   1.2621711802744E+08
(PID.TID 0000.0001) %MON RAS_min                      =   6.4390979194019E+07
(PID.TID 0000.0001) %MON RAS_mean                     =   9.5539469354601E+07
(PID.TID 0000.0001) %MON RAS_sd                       =   1.8036080760153E+07
(PID.TID 0000.0001) %MON RAZ_max                      =   1.2621711802744E+08
(PID.TID 0000.0001) %MON RAZ_min                      =   6.4390979194019E+07
(PID.TID 0000.0001) %MON RAZ_mean                     =   9.5539469354601E+07
(PID.TID 0000.0001) %MON RAZ_sd                       =   1.8036080760153E+07
(PID.TID 0000.0001) %MON AngleCS_max                  =   1.0000000000000E+00
(PID.TID 0000.0001) %MON AngleCS_min                  =   1.0000000000000E+00
(PID.TID 0000.0001) %MON AngleCS_mean                 =   1.0000000000000E+00
(PID.TID 0000.0001) %MON AngleCS_sd                   =   0.0000000000000E+00
(PID.TID 0000.0001) %MON AngleSN_max                  =   0.0000000000000E+00
(PID.TID 0000.0001) %MON AngleSN_min                  =   0.0000000000000E+00
(PID.TID 0000.0001) %MON AngleSN_mean                 =   0.0000000000000E+00
(PID.TID 0000.0001) %MON AngleSN_sd                   =   0.0000000000000E+00
(PID.TID 0000.0001) GAD_INIT_FIXED: GAD_OlMinSize=  1  0  1
(PID.TID 0000.0001) 
(PID.TID 0000.0001) // ===================================
(PID.TID 0000.0001) // GAD parameters :
(PID.TID 0000.0001) // ===================================
(PID.TID 0000.0001) tempAdvScheme =   /* Temp. Horiz.Advection scheme selector */
(PID.TID 0000.0001)                       2
(PID.TID 0000.0001)     ;
(PID.TID 0000.0001) tempVertAdvScheme =   /* Temp. Vert. Advection scheme selector */
(PID.TID 0000.0001)                       2
(PID.TID 0000.0001)     ;
(PID.TID 0000.0001) tempMultiDimAdvec =   /* use Muti-Dim Advec method for Temp */
(PID.TID 0000.0001)                   F
(PID.TID 0000.0001)     ;
(PID.TID 0000.0001) tempSOM_Advection = /* use 2nd Order Moment Advection for Temp */
(PID.TID 0000.0001)                   F
(PID.TID 0000.0001)     ;
(PID.TID 0000.0001) AdamsBashforthGt = /* apply Adams-Bashforth extrapolation on Gt */
(PID.TID 0000.0001)                   T
(PID.TID 0000.0001)     ;
(PID.TID 0000.0001) AdamsBashforth_T = /* apply Adams-Bashforth extrapolation on Temp */
(PID.TID 0000.0001)                   F
(PID.TID 0000.0001)     ;
(PID.TID 0000.0001) saltAdvScheme =   /* Salt. Horiz.advection scheme selector */
(PID.TID 0000.0001)                       2
(PID.TID 0000.0001)     ;
(PID.TID 0000.0001) saltVertAdvScheme =   /* Salt. Vert. Advection scheme selector */
(PID.TID 0000.0001)                       2
(PID.TID 0000.0001)     ;
(PID.TID 0000.0001) saltMultiDimAdvec =   /* use Muti-Dim Advec method for Salt */
(PID.TID 0000.0001)                   F
(PID.TID 0000.0001)     ;
(PID.TID 0000.0001) saltSOM_Advection = /* use 2nd Order Moment Advection for Salt */
(PID.TID 0000.0001)                   F
(PID.TID 0000.0001)     ;
(PID.TID 0000.0001) AdamsBashforthGs = /* apply Adams-Bashforth extrapolation on Gs */
(PID.TID 0000.0001)                   T
(PID.TID 0000.0001)     ;
(PID.TID 0000.0001) AdamsBashforth_S = /* apply Adams-Bashforth extrapolation on Salt */
(PID.TID 0000.0001)                   F
(PID.TID 0000.0001)     ;
(PID.TID 0000.0001) // ===================================
(PID.TID 0000.0001) ctrl-wet 1:    nvarlength =       306201
(PID.TID 0000.0001) ctrl-wet 2: surface wet C =            0
(PID.TID 0000.0001) ctrl-wet 3: surface wet W =            0
(PID.TID 0000.0001) ctrl-wet 4: surface wet S =            0
(PID.TID 0000.0001) ctrl-wet 4a:surface wet V =            0
(PID.TID 0000.0001) ctrl-wet 5: 3D wet points =       100450
(PID.TID 0000.0001) ctrl-wet 6: no recs for i =     1           1
(PID.TID 0000.0001) ctrl-wet 6: no recs for i =     2           1
(PID.TID 0000.0001) ctrl-wet 6: no recs for i =     3           0
(PID.TID 0000.0001) ctrl-wet 6: no recs for i =     4           0
(PID.TID 0000.0001) ctrl-wet 6: no recs for i =     5           0
(PID.TID 0000.0001) ctrl-wet 6: no recs for i =     6           0
(PID.TID 0000.0001) ctrl-wet 6: no recs for i =     7           0
(PID.TID 0000.0001) ctrl-wet 6: no recs for i =     8           0
(PID.TID 0000.0001) ctrl-wet 6: no recs for i =     9           0
(PID.TID 0000.0001) ctrl-wet 6: no recs for i =    10           0
(PID.TID 0000.0001) ctrl-wet 6: no recs for i =    11           0
(PID.TID 0000.0001) ctrl-wet 6: no recs for i =    12           0
(PID.TID 0000.0001) ctrl-wet 6: no recs for i =    13           0
(PID.TID 0000.0001) ctrl-wet 6: no recs for i =    14           0
(PID.TID 0000.0001) ctrl-wet 6: no recs for i =    15           1
(PID.TID 0000.0001) ctrl-wet 6: no recs for i =    16           0
(PID.TID 0000.0001) ctrl-wet 6: no recs for i =    17           0
(PID.TID 0000.0001) ctrl-wet 6: no recs for i =    18           0
(PID.TID 0000.0001) ctrl-wet 6: no recs for i =    19           0
(PID.TID 0000.0001) ctrl-wet 6: no recs for i =    20           0
(PID.TID 0000.0001) ctrl-wet 6: no recs for i =    21           0
(PID.TID 0000.0001) ctrl-wet 6: no recs for i =    22           0
(PID.TID 0000.0001) ctrl-wet 6: no recs for i =    23           0
(PID.TID 0000.0001) ctrl-wet 6: no recs for i =    24           0
(PID.TID 0000.0001) ctrl-wet 6: no recs for i =    25           0
(PID.TID 0000.0001) ctrl-wet 6: no recs for i =    26           0
(PID.TID 0000.0001) ctrl-wet 6: no recs for i =    27           0
(PID.TID 0000.0001) ctrl-wet 6: no recs for i =    28           0
(PID.TID 0000.0001) ctrl-wet 6: no recs for i =    29           0
(PID.TID 0000.0001) ctrl-wet 6: no recs for i =    30           0
(PID.TID 0000.0001) ctrl-wet 6: no recs for i =    31           0
(PID.TID 0000.0001) ctrl-wet 6: no recs for i =    32           0
(PID.TID 0000.0001) ctrl-wet 6: no recs for i =    33           0
(PID.TID 0000.0001) ctrl-wet 6: no recs for i =    34           0
(PID.TID 0000.0001) ctrl-wet 6: no recs for i =    35           0
(PID.TID 0000.0001) ctrl-wet 6: no recs for i =    36           0
(PID.TID 0000.0001) ctrl-wet 6: no recs for i =    37           0
(PID.TID 0000.0001) ctrl-wet 6: no recs for i =    38           0
(PID.TID 0000.0001) ctrl-wet 6: no recs for i =    39           0
(PID.TID 0000.0001) ctrl-wet 6: no recs for i =    40           0
(PID.TID 0000.0001) ctrl-wet 6: no recs for i =    41           0
(PID.TID 0000.0001) ctrl-wet 6: no recs for i =    42           0
(PID.TID 0000.0001) ctrl-wet 6: no recs for i =    43           0
(PID.TID 0000.0001) ctrl-wet 6: no recs for i =    44           0
(PID.TID 0000.0001) ctrl-wet 6: no recs for i =    45           1
(PID.TID 0000.0001) ctrl-wet 6: no recs for i =    46           0
(PID.TID 0000.0001) ctrl-wet 6: no recs for i =    47           0
(PID.TID 0000.0001) ctrl-wet 6: no recs for i =    48           0
(PID.TID 0000.0001) ctrl-wet 6: no recs for i =    49           0
(PID.TID 0000.0001) ctrl-wet 6: no recs for i =    50           0
(PID.TID 0000.0001) ctrl-wet 6: no recs for i =    51           0
(PID.TID 0000.0001) ctrl-wet 6: no recs for i =    52           0
(PID.TID 0000.0001) ctrl-wet 6: no recs for i =    53           0
(PID.TID 0000.0001) ctrl-wet 6: no recs for i =    54           0
(PID.TID 0000.0001) ctrl-wet 6: no recs for i =    55           0
(PID.TID 0000.0001) ctrl-wet 6: no recs for i =    56           0
(PID.TID 0000.0001) ctrl-wet 6: no recs for i =    57           0
(PID.TID 0000.0001) ctrl-wet 6: no recs for i =    58           0
(PID.TID 0000.0001) ctrl-wet 6: no recs for i =    59           0
(PID.TID 0000.0001) ctrl-wet 6: no recs for i =    60           0
(PID.TID 0000.0001) ctrl-wet 7: flux        200900
(PID.TID 0000.0001) ctrl-wet 8: atmos       200900
(PID.TID 0000.0001) ctrl-wet -------------------------------------------------
(PID.TID 0000.0001) ctrl-wet 13: global nvarlength for Nr =   30      306201
(PID.TID 0000.0001) ctrl-wet -------------------------------------------------
(PID.TID 0000.0001) ctrl-wet 14: global nWet C/S/W/V k=    1           0           0           0           0
(PID.TID 0000.0001) ctrl-wet 14: global nWet C/S/W/V k=    2           0           0           0           0
(PID.TID 0000.0001) ctrl-wet 14: global nWet C/S/W/V k=    3           0           0           0           0
(PID.TID 0000.0001) ctrl-wet 14: global nWet C/S/W/V k=    4           0           0           0           0
(PID.TID 0000.0001) ctrl-wet 14: global nWet C/S/W/V k=    5           0           0           0           0
(PID.TID 0000.0001) ctrl-wet 14: global nWet C/S/W/V k=    6           0           0           0           0
(PID.TID 0000.0001) ctrl-wet 14: global nWet C/S/W/V k=    7        2989        2940        2928           0
(PID.TID 0000.0001) ctrl-wet 14: global nWet C/S/W/V k=    8        3087        3038        3024           0
(PID.TID 0000.0001) ctrl-wet 14: global nWet C/S/W/V k=    9        3185        3136        3120           0
(PID.TID 0000.0001) ctrl-wet 14: global nWet C/S/W/V k=   10        3332        3283        3264           0
(PID.TID 0000.0001) ctrl-wet 14: global nWet C/S/W/V k=   11        3430        3381        3360           0
(PID.TID 0000.0001) ctrl-wet 14: global nWet C/S/W/V k=   12        3577        3528        3504           0
(PID.TID 0000.0001) ctrl-wet 14: global nWet C/S/W/V k=   13        3675        3626        3600           0
(PID.TID 0000.0001) ctrl-wet 14: global nWet C/S/W/V k=   14        3773        3724        3696           0
(PID.TID 0000.0001) ctrl-wet 14: global nWet C/S/W/V k=   15        3920        3871        3840           0
(PID.TID 0000.0001) ctrl-wet 14: global nWet C/S/W/V k=   16        4018        3969        3936           0
(PID.TID 0000.0001) ctrl-wet 14: global nWet C/S/W/V k=   17        4165        4116        4080           0
(PID.TID 0000.0001) ctrl-wet 14: global nWet C/S/W/V k=   18        4263        4214        4176           0
(PID.TID 0000.0001) ctrl-wet 14: global nWet C/S/W/V k=   19        4361        4312        4272           0
(PID.TID 0000.0001) ctrl-wet 14: global nWet C/S/W/V k=   20        4508        4459        4416           0
(PID.TID 0000.0001) ctrl-wet 14: global nWet C/S/W/V k=   21        4606        4557        4512           0
(PID.TID 0000.0001) ctrl-wet 14: global nWet C/S/W/V k=   22        4753        4704        4656           0
(PID.TID 0000.0001) ctrl-wet 14: global nWet C/S/W/V k=   23        4851        4802        4752           0
(PID.TID 0000.0001) ctrl-wet 14: global nWet C/S/W/V k=   24        4851        4802        4752           0
(PID.TID 0000.0001) ctrl-wet 14: global nWet C/S/W/V k=   25        4851        4802        4752           0
(PID.TID 0000.0001) ctrl-wet 14: global nWet C/S/W/V k=   26        4851        4802        4752           0
(PID.TID 0000.0001) ctrl-wet 14: global nWet C/S/W/V k=   27        4851        4802        4752           0
(PID.TID 0000.0001) ctrl-wet 14: global nWet C/S/W/V k=   28        4851        4802        4752           0
(PID.TID 0000.0001) ctrl-wet 14: global nWet C/S/W/V k=   29        4851        4802        4752           0
(PID.TID 0000.0001) ctrl-wet 14: global nWet C/S/W/V k=   30        4851        4802        4752           0
(PID.TID 0000.0001) ctrl-wet -------------------------------------------------
(PID.TID 0000.0001) ctrl-wet -------------------------------------------------
(PID.TID 0000.0001) ctrl-wet -------------------------------------------------
(PID.TID 0000.0001) ctrl-wet 17a:surface wet I =         4851
(PID.TID 0000.0001) ctrl-wet 17b: global nWet I k=    1        4851
(PID.TID 0000.0001) ctrl-wet 17b: global nWet I k=    2           0
(PID.TID 0000.0001) ctrl-wet 17b: global nWet I k=    3           0
(PID.TID 0000.0001) ctrl-wet 17b: global nWet I k=    4           0
(PID.TID 0000.0001) ctrl-wet 17b: global nWet I k=    5           0
(PID.TID 0000.0001) ctrl-wet 17b: global nWet I k=    6           0
(PID.TID 0000.0001) ctrl-wet 17b: global nWet I k=    7        2989
(PID.TID 0000.0001) ctrl-wet 17b: global nWet I k=    8        3087
(PID.TID 0000.0001) ctrl-wet 17b: global nWet I k=    9        3185
(PID.TID 0000.0001) ctrl-wet 17b: global nWet I k=   10        3332
(PID.TID 0000.0001) ctrl-wet 17b: global nWet I k=   11        3430
(PID.TID 0000.0001) ctrl-wet 17b: global nWet I k=   12        3577
(PID.TID 0000.0001) ctrl-wet 17b: global nWet I k=   13        3675
(PID.TID 0000.0001) ctrl-wet 17b: global nWet I k=   14        3773
(PID.TID 0000.0001) ctrl-wet 17b: global nWet I k=   15        3920
(PID.TID 0000.0001) ctrl-wet 17b: global nWet I k=   16        4018
(PID.TID 0000.0001) ctrl-wet 17b: global nWet I k=   17        4165
(PID.TID 0000.0001) ctrl-wet 17b: global nWet I k=   18        4263
(PID.TID 0000.0001) ctrl-wet 17b: global nWet I k=   19        4361
(PID.TID 0000.0001) ctrl-wet 17b: global nWet I k=   20        4508
(PID.TID 0000.0001) ctrl-wet 17b: global nWet I k=   21        4606
(PID.TID 0000.0001) ctrl-wet 17b: global nWet I k=   22        4753
(PID.TID 0000.0001) ctrl-wet 17b: global nWet I k=   23        4851
(PID.TID 0000.0001) ctrl-wet 17b: global nWet I k=   24        4851
(PID.TID 0000.0001) ctrl-wet 17b: global nWet I k=   25        4851
(PID.TID 0000.0001) ctrl-wet 17b: global nWet I k=   26        4851
(PID.TID 0000.0001) ctrl-wet 17b: global nWet I k=   27        4851
(PID.TID 0000.0001) ctrl-wet 17b: global nWet I k=   28        4851
(PID.TID 0000.0001) ctrl-wet 17b: global nWet I k=   29        4851
(PID.TID 0000.0001) ctrl-wet 17b: global nWet I k=   30        4851
(PID.TID 0000.0001) ctrl-wet 17c: global SUM(K) shifwflx         4851
(PID.TID 0000.0001) ctrl-wet -------------------------------------------------
(PID.TID 0000.0001) ctrl_init: no. of control variables:            4
(PID.TID 0000.0001) ctrl_init: control vector length:          306201
(PID.TID 0000.0001) %MON fCori_max                    =  -1.3709057042516E-04
(PID.TID 0000.0001) %MON fCori_min                    =  -1.4360464034757E-04
(PID.TID 0000.0001) %MON fCori_mean                   =  -1.4069429304699E-04
(PID.TID 0000.0001) %MON fCori_sd                     =   1.9069739624987E-06
(PID.TID 0000.0001) %MON fCoriG_max                   =  -1.3713394327439E-04
(PID.TID 0000.0001) %MON fCoriG_min                   =  -1.4362679550910E-04
(PID.TID 0000.0001) %MON fCoriG_mean                  =  -1.4072713798624E-04
(PID.TID 0000.0001) %MON fCoriG_sd                    =   1.9008093726821E-06
(PID.TID 0000.0001) %MON fCoriCos_max                 =   4.9761447480159E-05
(PID.TID 0000.0001) %MON fCoriCos_min                 =   2.5450607565678E-05
(PID.TID 0000.0001) %MON fCoriCos_mean                =   3.7698922201606E-05
(PID.TID 0000.0001) %MON fCoriCos_sd                  =   7.0920218535055E-06
(PID.TID 0000.0001) INI_CG2D: CG2D normalisation factor =  1.0404366262810520E-03
(PID.TID 0000.0001) 
(PID.TID 0000.0001) // =======================================================
(PID.TID 0000.0001) // Model configuration
(PID.TID 0000.0001) // =======================================================
(PID.TID 0000.0001) //
(PID.TID 0000.0001) // "Physical" paramters ( PARM01 in namelist )
(PID.TID 0000.0001) //
(PID.TID 0000.0001) buoyancyRelation = /* Type of relation to get Buoyancy */
(PID.TID 0000.0001)               'OCEANIC'
(PID.TID 0000.0001)     ;
(PID.TID 0000.0001) fluidIsAir   =  /* fluid major constituent is Air */
(PID.TID 0000.0001)                   F
(PID.TID 0000.0001)     ;
(PID.TID 0000.0001) fluidIsWater =  /* fluid major constituent is Water */
(PID.TID 0000.0001)                   T
(PID.TID 0000.0001)     ;
(PID.TID 0000.0001) usingPCoords =  /* use p (or p*) vertical coordinate */
(PID.TID 0000.0001)                   F
(PID.TID 0000.0001)     ;
(PID.TID 0000.0001) usingZCoords =  /* use z (or z*) vertical coordinate */
(PID.TID 0000.0001)                   T
(PID.TID 0000.0001)     ;
(PID.TID 0000.0001) tRef =   /* Reference temperature profile ( oC or K ) */
(PID.TID 0000.0001)    30 @ -1.900000000000000E+00              /* K =  1: 30 */
(PID.TID 0000.0001)     ;
(PID.TID 0000.0001) sRef =   /* Reference salinity profile ( psu ) */
(PID.TID 0000.0001)    30 @  3.440000000000000E+01              /* K =  1: 30 */
(PID.TID 0000.0001)     ;
(PID.TID 0000.0001) viscAh  =   /* Lateral eddy viscosity ( m^2/s ) */
(PID.TID 0000.0001)                 6.000000000000000E+02
(PID.TID 0000.0001)     ;
(PID.TID 0000.0001) viscAhMax = /* Maximum lateral eddy viscosity ( m^2/s ) */
(PID.TID 0000.0001)                 1.000000000000000E+21
(PID.TID 0000.0001)     ;
(PID.TID 0000.0001) viscAhGrid = /* Grid dependent lateral eddy viscosity ( non-dim. ) */
(PID.TID 0000.0001)                 0.000000000000000E+00
(PID.TID 0000.0001)     ;
(PID.TID 0000.0001) useFullLeith = /* Use Full Form of Leith Viscosity on/off flag*/
(PID.TID 0000.0001)                   F
(PID.TID 0000.0001)     ;
(PID.TID 0000.0001) useStrainTensionVisc= /* Use StrainTension Form of Viscous Operator flag*/
(PID.TID 0000.0001)                   F
(PID.TID 0000.0001)     ;
(PID.TID 0000.0001) useAreaViscLength = /* Use area for visc length instead of geom. mean*/
(PID.TID 0000.0001)                   F
(PID.TID 0000.0001)     ;
(PID.TID 0000.0001) viscC2leith = /* Leith harmonic visc. factor (on grad(vort),non-dim.) */
(PID.TID 0000.0001)                 0.000000000000000E+00
(PID.TID 0000.0001)     ;
(PID.TID 0000.0001) viscC2leithD = /* Leith harmonic viscosity factor (on grad(div),non-dim.)*/
(PID.TID 0000.0001)                 0.000000000000000E+00
(PID.TID 0000.0001)     ;
(PID.TID 0000.0001) viscC2smag = /* Smagorinsky harmonic viscosity factor (non-dim.) */
(PID.TID 0000.0001)                 0.000000000000000E+00
(PID.TID 0000.0001)     ;
(PID.TID 0000.0001) viscA4  =   /* Lateral biharmonic viscosity ( m^4/s ) */
(PID.TID 0000.0001)                 0.000000000000000E+00
(PID.TID 0000.0001)     ;
(PID.TID 0000.0001) viscA4Max = /* Maximum biharmonic viscosity ( m^2/s ) */
(PID.TID 0000.0001)                 1.000000000000000E+21
(PID.TID 0000.0001)     ;
(PID.TID 0000.0001) viscA4Grid = /* Grid dependent biharmonic viscosity ( non-dim. ) */
(PID.TID 0000.0001)                 0.000000000000000E+00
(PID.TID 0000.0001)     ;
(PID.TID 0000.0001) viscC4leith = /* Leith biharm viscosity factor (on grad(vort), non-dim.)*/
(PID.TID 0000.0001)                 0.000000000000000E+00
(PID.TID 0000.0001)     ;
(PID.TID 0000.0001) viscC4leithD = /* Leith biharm viscosity factor (on grad(div), non-dim.) */
(PID.TID 0000.0001)                 0.000000000000000E+00
(PID.TID 0000.0001)     ;
(PID.TID 0000.0001) viscC4Smag = /* Smagorinsky biharm viscosity factor (non-dim) */
(PID.TID 0000.0001)                 0.000000000000000E+00
(PID.TID 0000.0001)     ;
(PID.TID 0000.0001) no_slip_sides =  /* Viscous BCs: No-slip sides */
(PID.TID 0000.0001)                   F
(PID.TID 0000.0001)     ;
(PID.TID 0000.0001) sideDragFactor = /* side-drag scaling factor (non-dim) */
(PID.TID 0000.0001)                 2.000000000000000E+00
(PID.TID 0000.0001)     ;
(PID.TID 0000.0001) viscArNr = /* vertical profile of vertical viscosity ( m^2/s )*/
(PID.TID 0000.0001)    30 @  1.000000000000000E-03              /* K =  1: 30 */
(PID.TID 0000.0001)     ;
(PID.TID 0000.0001) no_slip_bottom =  /* Viscous BCs: No-slip bottom */
(PID.TID 0000.0001)                   F
(PID.TID 0000.0001)     ;
(PID.TID 0000.0001) bottomDragLinear = /* linear bottom-drag coefficient ( m/s ) */
(PID.TID 0000.0001)                 0.000000000000000E+00
(PID.TID 0000.0001)     ;
(PID.TID 0000.0001) bottomDragQuadratic = /* quadratic bottom-drag coefficient (-) */
(PID.TID 0000.0001)                 2.500000000000000E-03
(PID.TID 0000.0001)     ;
(PID.TID 0000.0001) diffKhT =   /* Laplacian diffusion of heat laterally ( m^2/s ) */
(PID.TID 0000.0001)                 1.000000000000000E+02
(PID.TID 0000.0001)     ;
(PID.TID 0000.0001) diffK4T =   /* Biharmonic diffusion of heat laterally ( m^4/s ) */
(PID.TID 0000.0001)                 0.000000000000000E+00
(PID.TID 0000.0001)     ;
(PID.TID 0000.0001) diffKhS =   /* Laplacian diffusion of salt laterally ( m^2/s ) */
(PID.TID 0000.0001)                 1.000000000000000E+02
(PID.TID 0000.0001)     ;
(PID.TID 0000.0001) diffK4S =   /* Biharmonic diffusion of salt laterally ( m^4/s ) */
(PID.TID 0000.0001)                 0.000000000000000E+00
(PID.TID 0000.0001)     ;
(PID.TID 0000.0001) diffKrNrT = /* vertical profile of vertical diffusion of Temp ( m^2/s )*/
(PID.TID 0000.0001)    30 @  5.000000000000000E-05              /* K =  1: 30 */
(PID.TID 0000.0001)     ;
(PID.TID 0000.0001) diffKrNrS = /* vertical profile of vertical diffusion of Salt ( m^2/s )*/
(PID.TID 0000.0001)    30 @  5.000000000000000E-05              /* K =  1: 30 */
(PID.TID 0000.0001)     ;
(PID.TID 0000.0001) diffKrBL79surf = /* Surface diffusion for Bryan and Lewis 79 ( m^2/s ) */
(PID.TID 0000.0001)                 0.000000000000000E+00
(PID.TID 0000.0001)     ;
(PID.TID 0000.0001) diffKrBL79deep = /* Deep diffusion for Bryan and Lewis 1979 ( m^2/s ) */
(PID.TID 0000.0001)                 0.000000000000000E+00
(PID.TID 0000.0001)     ;
(PID.TID 0000.0001) diffKrBL79scl = /* Depth scale for Bryan and Lewis 1979 ( m ) */
(PID.TID 0000.0001)                 2.000000000000000E+02
(PID.TID 0000.0001)     ;
(PID.TID 0000.0001) diffKrBL79Ho = /* Turning depth for Bryan and Lewis 1979 ( m ) */
(PID.TID 0000.0001)                -2.000000000000000E+03
(PID.TID 0000.0001)     ;
(PID.TID 0000.0001) ivdc_kappa = /* Implicit Vertical Diffusivity for Convection ( m^2/s) */
(PID.TID 0000.0001)                 0.000000000000000E+00
(PID.TID 0000.0001)     ;
(PID.TID 0000.0001) hMixCriteria=  /* Criteria for mixed-layer diagnostic */
(PID.TID 0000.0001)                -8.000000000000000E-01
(PID.TID 0000.0001)     ;
(PID.TID 0000.0001) dRhoSmall =  /* Parameter for mixed-layer diagnostic */
(PID.TID 0000.0001)                 1.000000000000000E-06
(PID.TID 0000.0001)     ;
(PID.TID 0000.0001) hMixSmooth=  /* Smoothing parameter for mixed-layer diagnostic */
(PID.TID 0000.0001)                 0.000000000000000E+00
(PID.TID 0000.0001)     ;
(PID.TID 0000.0001) eosType =  /* Type of Equation of State */
(PID.TID 0000.0001)               'JMD95Z'
(PID.TID 0000.0001)     ;
(PID.TID 0000.0001) celsius2K = /* 0 degree Celsius converted to Kelvin ( K ) */
(PID.TID 0000.0001)                 2.731500000000000E+02
(PID.TID 0000.0001)     ;
(PID.TID 0000.0001) rhoConst  = /* Reference density (Boussinesq)  ( kg/m^3 ) */
(PID.TID 0000.0001)                 1.030000000000000E+03
(PID.TID 0000.0001)     ;
(PID.TID 0000.0001) rhoFacC = /* normalized Reference density @ cell-Center (-) */
(PID.TID 0000.0001)    30 @  1.000000000000000E+00              /* K =  1: 30 */
(PID.TID 0000.0001)     ;
(PID.TID 0000.0001) rhoFacF = /* normalized Reference density @ W-Interface (-) */
(PID.TID 0000.0001)    31 @  1.000000000000000E+00              /* K =  1: 31 */
(PID.TID 0000.0001)     ;
(PID.TID 0000.0001) rhoConstFresh = /* Fresh-water reference density ( kg/m^3 ) */
(PID.TID 0000.0001)                 1.030000000000000E+03
(PID.TID 0000.0001)     ;
(PID.TID 0000.0001) gravity =   /* Gravitational acceleration ( m/s^2 ) */
(PID.TID 0000.0001)                 9.810000000000000E+00
(PID.TID 0000.0001)     ;
(PID.TID 0000.0001) gBaro =   /* Barotropic gravity ( m/s^2 ) */
(PID.TID 0000.0001)                 9.810000000000000E+00
(PID.TID 0000.0001)     ;
(PID.TID 0000.0001) rotationPeriod =   /* Rotation Period ( s ) */
(PID.TID 0000.0001)                 8.616400000000000E+04
(PID.TID 0000.0001)     ;
(PID.TID 0000.0001) omega =   /* Angular velocity ( rad/s ) */
(PID.TID 0000.0001)                 7.292123516990375E-05
(PID.TID 0000.0001)     ;
(PID.TID 0000.0001) f0 =   /* Reference coriolis parameter ( 1/s ) */
(PID.TID 0000.0001)                 1.000000000000000E-04
(PID.TID 0000.0001)     ;
(PID.TID 0000.0001) beta =   /* Beta ( 1/(m.s) ) */
(PID.TID 0000.0001)                 9.999999999999999E-12
(PID.TID 0000.0001)     ;
(PID.TID 0000.0001) fPrime =   /* Second coriolis parameter ( 1/s ) */
(PID.TID 0000.0001)                 0.000000000000000E+00
(PID.TID 0000.0001)     ;
(PID.TID 0000.0001) rigidLid =   /* Rigid lid on/off flag */
(PID.TID 0000.0001)                   F
(PID.TID 0000.0001)     ;
(PID.TID 0000.0001) implicitFreeSurface =   /* Implicit free surface on/off flag */
(PID.TID 0000.0001)                   T
(PID.TID 0000.0001)     ;
(PID.TID 0000.0001) freeSurfFac =   /* Implicit free surface factor */
(PID.TID 0000.0001)                 1.000000000000000E+00
(PID.TID 0000.0001)     ;
(PID.TID 0000.0001) implicSurfPress =  /* Surface Pressure implicit factor (0-1)*/
(PID.TID 0000.0001)                 1.000000000000000E+00
(PID.TID 0000.0001)     ;
(PID.TID 0000.0001) implicDiv2Dflow =  /* Barot. Flow Div. implicit factor (0-1)*/
(PID.TID 0000.0001)                 1.000000000000000E+00
(PID.TID 0000.0001)     ;
(PID.TID 0000.0001) uniformLin_PhiSurf = /* use uniform Bo_surf on/off flag*/
(PID.TID 0000.0001)                   T
(PID.TID 0000.0001)     ;
(PID.TID 0000.0001) uniformFreeSurfLev = /* free-surface level-index is uniform */
(PID.TID 0000.0001)                   F
(PID.TID 0000.0001)     ;
(PID.TID 0000.0001) hFacMin =   /* minimum partial cell factor (hFac) */
(PID.TID 0000.0001)                 1.000000000000000E-01
(PID.TID 0000.0001)     ;
(PID.TID 0000.0001) hFacMinDr = /* minimum partial cell thickness ( m) */
(PID.TID 0000.0001)                 1.000000000000000E-01
(PID.TID 0000.0001)     ;
(PID.TID 0000.0001) exactConserv =  /* Exact Volume Conservation on/off flag*/
(PID.TID 0000.0001)                   T
(PID.TID 0000.0001)     ;
(PID.TID 0000.0001) linFSConserveTr = /* Tracer correction for Lin Free Surface on/off flag*/
(PID.TID 0000.0001)                   F
(PID.TID 0000.0001)     ;
(PID.TID 0000.0001) nonlinFreeSurf = /* Non-linear Free Surf. options (-1,0,1,2,3)*/
(PID.TID 0000.0001)                       2
(PID.TID 0000.0001)      -1,0= Off ; 1,2,3= On, 2=+rescale gU,gV, 3=+update cg2d solv.
(PID.TID 0000.0001)     ;
(PID.TID 0000.0001) hFacInf =   /* lower threshold for hFac (nonlinFreeSurf only)*/
(PID.TID 0000.0001)                 5.000000000000000E-02
(PID.TID 0000.0001)     ;
(PID.TID 0000.0001) hFacSup =   /* upper threshold for hFac (nonlinFreeSurf only)*/
(PID.TID 0000.0001)                 2.000000000000000E+00
(PID.TID 0000.0001)     ;
(PID.TID 0000.0001) select_rStar = /* r* Vertical coord. options (=0 r coord.; >0 uses r*)*/
(PID.TID 0000.0001)                       0
(PID.TID 0000.0001)     ;
(PID.TID 0000.0001) useRealFreshWaterFlux = /* Real Fresh Water Flux on/off flag*/
(PID.TID 0000.0001)                   F
(PID.TID 0000.0001)     ;
(PID.TID 0000.0001) temp_EvPrRn = /* Temp. of Evap/Prec/R (UNSET=use local T)(oC)*/
(PID.TID 0000.0001)                 1.234567000000000E+05
(PID.TID 0000.0001)     ;
(PID.TID 0000.0001) salt_EvPrRn = /* Salin. of Evap/Prec/R (UNSET=use local S)(psu)*/
(PID.TID 0000.0001)                 0.000000000000000E+00
(PID.TID 0000.0001)     ;
(PID.TID 0000.0001) selectAddFluid = /* option for mass source/sink of fluid (=0: off) */
(PID.TID 0000.0001)                       0
(PID.TID 0000.0001)     ;
(PID.TID 0000.0001) temp_addMass = /* Temp. of addMass array (UNSET=use local T)(oC)*/
(PID.TID 0000.0001)                 1.234567000000000E+05
(PID.TID 0000.0001)     ;
(PID.TID 0000.0001) salt_addMass = /* Salin. of addMass array (UNSET=use local S)(psu)*/
(PID.TID 0000.0001)                 0.000000000000000E+00
(PID.TID 0000.0001)     ;
(PID.TID 0000.0001) convertFW2Salt = /* convert F.W. Flux to Salt Flux (-1=use local S)(psu)*/
(PID.TID 0000.0001)                 3.340000000000000E+01
(PID.TID 0000.0001)     ;
(PID.TID 0000.0001) use3Dsolver = /* use 3-D pressure solver on/off flag */
(PID.TID 0000.0001)                   F
(PID.TID 0000.0001)     ;
(PID.TID 0000.0001) nonHydrostatic =  /* Non-Hydrostatic on/off flag */
(PID.TID 0000.0001)                   F
(PID.TID 0000.0001)     ;
(PID.TID 0000.0001) nh_Am2 = /* Non-Hydrostatic terms scaling factor */
(PID.TID 0000.0001)                 1.000000000000000E+00
(PID.TID 0000.0001)     ;
(PID.TID 0000.0001) implicitNHPress = /* Non-Hyd Pressure implicit factor (0-1)*/
(PID.TID 0000.0001)                 1.000000000000000E+00
(PID.TID 0000.0001)     ;
(PID.TID 0000.0001) selectNHfreeSurf = /* Non-Hyd (free-)Surface option */
(PID.TID 0000.0001)                       0
(PID.TID 0000.0001)     ;
(PID.TID 0000.0001) quasiHydrostatic = /* Quasi-Hydrostatic on/off flag */
(PID.TID 0000.0001)                   F
(PID.TID 0000.0001)     ;
(PID.TID 0000.0001) calc_wVelocity = /* vertical velocity calculation on/off flag */
(PID.TID 0000.0001)                   T
(PID.TID 0000.0001)     ;
(PID.TID 0000.0001) momStepping =  /* Momentum equation on/off flag */
(PID.TID 0000.0001)                   T
(PID.TID 0000.0001)     ;
(PID.TID 0000.0001) vectorInvariantMomentum= /* Vector-Invariant Momentum on/off */
(PID.TID 0000.0001)                   T
(PID.TID 0000.0001)     ;
(PID.TID 0000.0001) momAdvection =  /* Momentum advection on/off flag */
(PID.TID 0000.0001)                   T
(PID.TID 0000.0001)     ;
(PID.TID 0000.0001) momViscosity =  /* Momentum viscosity on/off flag */
(PID.TID 0000.0001)                   T
(PID.TID 0000.0001)     ;
(PID.TID 0000.0001) momImplVertAdv= /* Momentum implicit vert. advection on/off*/
(PID.TID 0000.0001)                   F
(PID.TID 0000.0001)     ;
(PID.TID 0000.0001) implicitViscosity = /* Implicit viscosity on/off flag */
(PID.TID 0000.0001)                   F
(PID.TID 0000.0001)     ;
(PID.TID 0000.0001) metricTerms =  /* metric-Terms on/off flag */
(PID.TID 0000.0001)                   T
(PID.TID 0000.0001)     ;
(PID.TID 0000.0001) useNHMTerms = /* Non-Hydrostatic Metric-Terms on/off */
(PID.TID 0000.0001)                   F
(PID.TID 0000.0001)     ;
(PID.TID 0000.0001) selectCoriMap = /* Coriolis Map options (0,1,2,3)*/
(PID.TID 0000.0001)                       2
(PID.TID 0000.0001)     0= f-Plane ; 1= Beta-Plane ; 2= Spherical ; 3= read from file
(PID.TID 0000.0001)     ;
(PID.TID 0000.0001) use3dCoriolis = /* 3-D Coriolis on/off flag */
(PID.TID 0000.0001)                   F
(PID.TID 0000.0001)     ;
(PID.TID 0000.0001) useCoriolis =  /* Coriolis on/off flag */
(PID.TID 0000.0001)                   T
(PID.TID 0000.0001)     ;
(PID.TID 0000.0001) useCDscheme =  /* CD scheme on/off flag */
(PID.TID 0000.0001)                   T
(PID.TID 0000.0001)     ;
(PID.TID 0000.0001) useEnergyConservingCoriolis= /* Flx-Form Coriolis scheme flag */
(PID.TID 0000.0001)                   F
(PID.TID 0000.0001)     ;
(PID.TID 0000.0001) useJamartWetPoints= /* Coriolis WetPoints method flag */
(PID.TID 0000.0001)                   F
(PID.TID 0000.0001)     ;
(PID.TID 0000.0001) useJamartMomAdv= /* V.I Non-linear terms Jamart flag */
(PID.TID 0000.0001)                   F
(PID.TID 0000.0001)     ;
(PID.TID 0000.0001) useAbsVorticity= /* V.I Works with f+zeta in Coriolis */
(PID.TID 0000.0001)                   F
(PID.TID 0000.0001)     ;
(PID.TID 0000.0001) selectVortScheme= /* V.I Scheme selector for Vorticity-Term */
(PID.TID 0000.0001)                       1
(PID.TID 0000.0001)    = 0 : enstrophy (Shallow-Water Eq.) conserving scheme by Sadourny, JAS 75
(PID.TID 0000.0001)    = 1 : same as 0 with modified hFac
(PID.TID 0000.0001)    = 2 : energy conserving scheme (used by Sadourny in JAS 75 paper)
(PID.TID 0000.0001)    = 3 : energy (general) and enstrophy (2D, nonDiv.) conserving scheme
(PID.TID 0000.0001)          from Sadourny (Burridge & Haseler, ECMWF Rep.4, 1977)
(PID.TID 0000.0001)     ;
(PID.TID 0000.0001) upwindVorticity= /* V.I Upwind bias vorticity flag */
(PID.TID 0000.0001)                   F
(PID.TID 0000.0001)     ;
(PID.TID 0000.0001) highOrderVorticity= /* V.I High order vort. advect. flag */
(PID.TID 0000.0001)                   F
(PID.TID 0000.0001)     ;
(PID.TID 0000.0001) upwindShear= /* V.I Upwind vertical Shear advection flag */
(PID.TID 0000.0001)                   F
(PID.TID 0000.0001)     ;
(PID.TID 0000.0001) selectKEscheme= /* V.I Kinetic Energy scheme selector */
(PID.TID 0000.0001)                       0
(PID.TID 0000.0001)     ;
(PID.TID 0000.0001) momForcing =  /* Momentum forcing on/off flag */
(PID.TID 0000.0001)                   T
(PID.TID 0000.0001)     ;
(PID.TID 0000.0001) momPressureForcing =  /* Momentum pressure term on/off flag */
(PID.TID 0000.0001)                   T
(PID.TID 0000.0001)     ;
(PID.TID 0000.0001) implicitIntGravWave= /* Implicit Internal Gravity Wave flag */
(PID.TID 0000.0001)                   F
(PID.TID 0000.0001)     ;
(PID.TID 0000.0001) staggerTimeStep =    /* Stagger time stepping on/off flag */
(PID.TID 0000.0001)                   T
(PID.TID 0000.0001)     ;
(PID.TID 0000.0001) doResetHFactors = /* reset thickness factors @ each time-step */
(PID.TID 0000.0001)                   T
(PID.TID 0000.0001)     ;
(PID.TID 0000.0001) multiDimAdvection =  /* enable/disable Multi-Dim Advection */
(PID.TID 0000.0001)                   T
(PID.TID 0000.0001)     ;
(PID.TID 0000.0001) useMultiDimAdvec =   /* Multi-Dim Advection is/is-not used */
(PID.TID 0000.0001)                   F
(PID.TID 0000.0001)     ;
(PID.TID 0000.0001) implicitDiffusion = /* Implicit Diffusion on/off flag */
(PID.TID 0000.0001)                   T
(PID.TID 0000.0001)     ;
(PID.TID 0000.0001) tempStepping =  /* Temperature equation on/off flag */
(PID.TID 0000.0001)                   T
(PID.TID 0000.0001)     ;
(PID.TID 0000.0001) tempAdvection=  /* Temperature advection on/off flag */
(PID.TID 0000.0001)                   T
(PID.TID 0000.0001)     ;
(PID.TID 0000.0001) tempImplVertAdv = /* Temp. implicit vert. advection on/off */
(PID.TID 0000.0001)                   F
(PID.TID 0000.0001)     ;
(PID.TID 0000.0001) tempForcing  =  /* Temperature forcing on/off flag */
(PID.TID 0000.0001)                   T
(PID.TID 0000.0001)     ;
(PID.TID 0000.0001) tempIsActiveTr = /* Temp. is a dynamically Active Tracer */
(PID.TID 0000.0001)                   T
(PID.TID 0000.0001)     ;
(PID.TID 0000.0001) saltStepping =  /* Salinity equation on/off flag */
(PID.TID 0000.0001)                   T
(PID.TID 0000.0001)     ;
(PID.TID 0000.0001) saltAdvection=  /* Salinity advection on/off flag */
(PID.TID 0000.0001)                   T
(PID.TID 0000.0001)     ;
(PID.TID 0000.0001) saltImplVertAdv = /* Sali. implicit vert. advection on/off */
(PID.TID 0000.0001)                   F
(PID.TID 0000.0001)     ;
(PID.TID 0000.0001) saltForcing  =  /* Salinity forcing on/off flag */
(PID.TID 0000.0001)                   T
(PID.TID 0000.0001)     ;
(PID.TID 0000.0001) saltIsActiveTr = /* Salt  is a dynamically Active Tracer */
(PID.TID 0000.0001)                   T
(PID.TID 0000.0001)     ;
(PID.TID 0000.0001)  readBinaryPrec = /* Precision used for reading binary files */
(PID.TID 0000.0001)                      64
(PID.TID 0000.0001)     ;
(PID.TID 0000.0001) writeBinaryPrec = /* Precision used for writing binary files */
(PID.TID 0000.0001)                      32
(PID.TID 0000.0001)     ;
(PID.TID 0000.0001)  globalFiles = /* write "global" (=not per tile) files */
(PID.TID 0000.0001)                   F
(PID.TID 0000.0001)     ;
(PID.TID 0000.0001)  useSingleCpuIO = /* only master MPI process does I/O */
(PID.TID 0000.0001)                   F
(PID.TID 0000.0001)     ;
(PID.TID 0000.0001) /* debLev[*]  : level of debug & auxiliary message printing */
(PID.TID 0000.0001) debLevZero =  0 ; /* level of disabled aux. msg printing */
(PID.TID 0000.0001)    debLevA =  1 ; /* level of minimum  aux. msg printing */
(PID.TID 0000.0001)    debLevB =  2 ; /* level of low aux. print (report read-file opening)*/
(PID.TID 0000.0001)    debLevC =  3 ; /* level of moderate debug prt (most pkgs debug msg) */
(PID.TID 0000.0001)    debLevD =  4 ; /* level of enhanced debug prt (add DEBUG_STATS prt) */
(PID.TID 0000.0001)    debLevE =  5 ; /* level of extensive debug printing */
(PID.TID 0000.0001) debugLevel =  /* select debug printing level */
(PID.TID 0000.0001)                       1
(PID.TID 0000.0001)     ;
(PID.TID 0000.0001) //
(PID.TID 0000.0001) // Elliptic solver(s) paramters ( PARM02 in namelist )
(PID.TID 0000.0001) //
(PID.TID 0000.0001) cg2dMaxIters =   /* Upper limit on 2d con. grad iterations  */
(PID.TID 0000.0001)                    1000
(PID.TID 0000.0001)     ;
(PID.TID 0000.0001) cg2dChkResFreq =   /* 2d con. grad convergence test frequency */
(PID.TID 0000.0001)                       1
(PID.TID 0000.0001)     ;
(PID.TID 0000.0001) cg2dTargetResidual =   /* 2d con. grad target residual  */
(PID.TID 0000.0001)                 1.000000000000000E-13
(PID.TID 0000.0001)     ;
(PID.TID 0000.0001) cg2dTargetResWunit =   /* CG2d target residual [W units] */
(PID.TID 0000.0001)                -1.000000000000000E+00
(PID.TID 0000.0001)     ;
(PID.TID 0000.0001) cg2dPreCondFreq =   /* Freq. for updating cg2d preconditioner */
(PID.TID 0000.0001)                       1
(PID.TID 0000.0001)     ;
(PID.TID 0000.0001) useSRCGSolver =  /* use single reduction CG solver(s) */
(PID.TID 0000.0001)                   F
(PID.TID 0000.0001)     ;
(PID.TID 0000.0001) printResidualFreq = /* Freq. for printing CG residual */
(PID.TID 0000.0001)                       0
(PID.TID 0000.0001)     ;
(PID.TID 0000.0001) //
(PID.TID 0000.0001) // Time stepping paramters ( PARM03 in namelist )
(PID.TID 0000.0001) //
(PID.TID 0000.0001) deltaTmom =   /* Momentum equation timestep ( s ) */
(PID.TID 0000.0001)                 1.800000000000000E+03
(PID.TID 0000.0001)     ;
(PID.TID 0000.0001) deltaTfreesurf = /* FreeSurface equation timestep ( s ) */
(PID.TID 0000.0001)                 1.800000000000000E+03
(PID.TID 0000.0001)     ;
(PID.TID 0000.0001) dTtracerLev =  /* Tracer equation timestep ( s ) */
(PID.TID 0000.0001)    30 @  1.800000000000000E+03              /* K =  1: 30 */
(PID.TID 0000.0001)     ;
(PID.TID 0000.0001) deltaTClock  =   /* Model clock timestep ( s ) */
(PID.TID 0000.0001)                 1.800000000000000E+03
(PID.TID 0000.0001)     ;
(PID.TID 0000.0001) cAdjFreq =   /* Convective adjustment interval ( s ) */
(PID.TID 0000.0001)                 1.000000000000000E+00
(PID.TID 0000.0001)     ;
(PID.TID 0000.0001) momForcingOutAB = /* =1: take Momentum Forcing out of Adams-Bash. stepping */
(PID.TID 0000.0001)                       0
(PID.TID 0000.0001)     ;
(PID.TID 0000.0001) tracForcingOutAB = /* =1: take T,S,pTr Forcing out of Adams-Bash. stepping */
(PID.TID 0000.0001)                       0
(PID.TID 0000.0001)     ;
(PID.TID 0000.0001) momDissip_In_AB = /* put Dissipation Tendency in Adams-Bash. stepping */
(PID.TID 0000.0001)                   T
(PID.TID 0000.0001)     ;
(PID.TID 0000.0001) doAB_onGtGs = /* apply AB on Tendencies (rather than on T,S)*/
(PID.TID 0000.0001)                   T
(PID.TID 0000.0001)     ;
(PID.TID 0000.0001) abEps =   /* Adams-Bashforth-2 stabilizing weight */
(PID.TID 0000.0001)                 1.000000000000000E-01
(PID.TID 0000.0001)     ;
(PID.TID 0000.0001) tauCD =   /* CD coupling time-scale ( s ) */
(PID.TID 0000.0001)                 4.000000000000000E+05
(PID.TID 0000.0001)     ;
(PID.TID 0000.0001) rCD =   /* Normalised CD coupling parameter */
(PID.TID 0000.0001)                 9.955000000000001E-01
(PID.TID 0000.0001)     ;
(PID.TID 0000.0001) epsAB_CD = /* AB-2 stabilizing weight for CD-scheme*/
(PID.TID 0000.0001)                 1.000000000000000E-01
(PID.TID 0000.0001)     ;
(PID.TID 0000.0001) pickupStrictlyMatch= /* stop if pickup do not strictly match */
(PID.TID 0000.0001)                   T
(PID.TID 0000.0001)     ;
(PID.TID 0000.0001) nIter0   =   /* Run starting timestep number */
(PID.TID 0000.0001)                    8640
(PID.TID 0000.0001)     ;
(PID.TID 0000.0001) nTimeSteps = /* Number of timesteps */
(PID.TID 0000.0001)                      10
(PID.TID 0000.0001)     ;
(PID.TID 0000.0001) nEndIter =   /* Run ending timestep number */
(PID.TID 0000.0001)                    8650
(PID.TID 0000.0001)     ;
(PID.TID 0000.0001) baseTime =   /* Model base time ( s ) */
(PID.TID 0000.0001)                 0.000000000000000E+00
(PID.TID 0000.0001)     ;
(PID.TID 0000.0001) startTime =  /* Run start time ( s ) */
(PID.TID 0000.0001)                 1.555200000000000E+07
(PID.TID 0000.0001)     ;
(PID.TID 0000.0001) endTime  =   /* Integration ending time ( s ) */
(PID.TID 0000.0001)                 1.557000000000000E+07
(PID.TID 0000.0001)     ;
(PID.TID 0000.0001) pChkPtFreq = /* Permanent restart/pickup file interval ( s ) */
(PID.TID 0000.0001)                 0.000000000000000E+00
(PID.TID 0000.0001)     ;
(PID.TID 0000.0001) chkPtFreq  = /* Rolling restart/pickup file interval ( s ) */
(PID.TID 0000.0001)                 0.000000000000000E+00
(PID.TID 0000.0001)     ;
(PID.TID 0000.0001) pickup_write_mdsio =   /* Model IO flag. */
(PID.TID 0000.0001)                   T
(PID.TID 0000.0001)     ;
(PID.TID 0000.0001) pickup_read_mdsio =   /* Model IO flag. */
(PID.TID 0000.0001)                   T
(PID.TID 0000.0001)     ;
(PID.TID 0000.0001) pickup_write_mnc =   /* Model IO flag. */
(PID.TID 0000.0001)                   F
(PID.TID 0000.0001)     ;
(PID.TID 0000.0001) pickup_read_mnc =   /* Model IO flag. */
(PID.TID 0000.0001)                   F
(PID.TID 0000.0001)     ;
(PID.TID 0000.0001) pickup_write_immed =   /* Model IO flag. */
(PID.TID 0000.0001)                   F
(PID.TID 0000.0001)     ;
(PID.TID 0000.0001) writePickupAtEnd =   /* Model IO flag. */
(PID.TID 0000.0001)                   T
(PID.TID 0000.0001)     ;
(PID.TID 0000.0001) dumpFreq =   /* Model state write out interval ( s ). */
(PID.TID 0000.0001)                 0.000000000000000E+00
(PID.TID 0000.0001)     ;
(PID.TID 0000.0001) dumpInitAndLast= /* write out Initial & Last iter. model state */
(PID.TID 0000.0001)                   T
(PID.TID 0000.0001)     ;
(PID.TID 0000.0001) snapshot_mdsio =   /* Model IO flag. */
(PID.TID 0000.0001)                   T
(PID.TID 0000.0001)     ;
(PID.TID 0000.0001) snapshot_mnc =   /* Model IO flag. */
(PID.TID 0000.0001)                   F
(PID.TID 0000.0001)     ;
(PID.TID 0000.0001) monitorFreq =   /* Monitor output interval ( s ). */
(PID.TID 0000.0001)                 1.000000000000000E+00
(PID.TID 0000.0001)     ;
(PID.TID 0000.0001) monitorSelect = /* select group of variables to monitor */
(PID.TID 0000.0001)                       2
(PID.TID 0000.0001)     ;
(PID.TID 0000.0001) monitor_stdio =   /* Model IO flag. */
(PID.TID 0000.0001)                   T
(PID.TID 0000.0001)     ;
(PID.TID 0000.0001) monitor_mnc =   /* Model IO flag. */
(PID.TID 0000.0001)                   F
(PID.TID 0000.0001)     ;
(PID.TID 0000.0001) externForcingPeriod =   /* forcing period (s) */
(PID.TID 0000.0001)                 0.000000000000000E+00
(PID.TID 0000.0001)     ;
(PID.TID 0000.0001) externForcingCycle =   /* period of the cyle (s). */
(PID.TID 0000.0001)                 0.000000000000000E+00
(PID.TID 0000.0001)     ;
(PID.TID 0000.0001) tauThetaClimRelax =   /* relaxation time scale (s) */
(PID.TID 0000.0001)                 0.000000000000000E+00
(PID.TID 0000.0001)     ;
(PID.TID 0000.0001) tauSaltClimRelax =   /* relaxation time scale (s) */
(PID.TID 0000.0001)                 0.000000000000000E+00
(PID.TID 0000.0001)     ;
(PID.TID 0000.0001) latBandClimRelax =   /* max. Lat. where relaxation */
(PID.TID 0000.0001)                 1.800000000000000E+02
(PID.TID 0000.0001)     ;
(PID.TID 0000.0001) //
(PID.TID 0000.0001) // Gridding paramters ( PARM04 in namelist )
(PID.TID 0000.0001) //
(PID.TID 0000.0001) usingCartesianGrid = /* Cartesian coordinates flag ( True/False ) */
(PID.TID 0000.0001)                   F
(PID.TID 0000.0001)     ;
(PID.TID 0000.0001) usingCylindricalGrid = /* Cylindrical coordinates flag ( True/False ) */
(PID.TID 0000.0001)                   F
(PID.TID 0000.0001)     ;
(PID.TID 0000.0001) usingSphericalPolarGrid = /* Spherical coordinates flag ( True/False ) */
(PID.TID 0000.0001)                   T
(PID.TID 0000.0001)     ;
(PID.TID 0000.0001) usingCurvilinearGrid = /* Curvilinear coordinates flag ( True/False ) */
(PID.TID 0000.0001)                   F
(PID.TID 0000.0001)     ;
(PID.TID 0000.0001) selectSigmaCoord = /* Hybrid-Sigma Vert. Coordinate option */
(PID.TID 0000.0001)                       0
(PID.TID 0000.0001)     ;
(PID.TID 0000.0001) Ro_SeaLevel = /* r(1) ( units of r ==  m ) */
(PID.TID 0000.0001)                 0.000000000000000E+00
(PID.TID 0000.0001)     ;
(PID.TID 0000.0001) rSigmaBnd = /* r/sigma transition ( units of r ==  m ) */
(PID.TID 0000.0001)                 1.234567000000000E+05
(PID.TID 0000.0001)     ;
(PID.TID 0000.0001) rkSign =   /* index orientation relative to vertical coordinate */
(PID.TID 0000.0001)                -1.000000000000000E+00
(PID.TID 0000.0001)     ;
(PID.TID 0000.0001) gravitySign = /* gravity orientation relative to vertical coordinate */
(PID.TID 0000.0001)                -1.000000000000000E+00
(PID.TID 0000.0001)     ;
(PID.TID 0000.0001) mass2rUnit = /* convert mass per unit area [kg/m2] to r-units [m] */
(PID.TID 0000.0001)                 9.708737864077669E-04
(PID.TID 0000.0001)     ;
(PID.TID 0000.0001) rUnit2mass = /* convert r-units [m] to mass per unit area [kg/m2] */
(PID.TID 0000.0001)                 1.030000000000000E+03
(PID.TID 0000.0001)     ;
(PID.TID 0000.0001) drC =   /* C spacing ( units of r ) */
(PID.TID 0000.0001)                 1.500000000000000E+01,      /* K =  1 */
(PID.TID 0000.0001)    29 @  3.000000000000000E+01              /* K =  2: 30 */
(PID.TID 0000.0001)     ;
(PID.TID 0000.0001) drF =   /* W spacing ( units of r ) */
(PID.TID 0000.0001)    30 @  3.000000000000000E+01              /* K =  1: 30 */
(PID.TID 0000.0001)     ;
(PID.TID 0000.0001) delX = /* U spacing ( m - cartesian, degrees - spherical ) */
(PID.TID 0000.0001)    50 @  3.000000000000000E-01              /* I =  1: 50 */
(PID.TID 0000.0001)     ;
(PID.TID 0000.0001) delY = /* V spacing ( m - cartesian, degrees - spherical ) */
(PID.TID 0000.0001)   100 @  1.000000000000000E-01              /* J =  1:100 */
(PID.TID 0000.0001)     ;
(PID.TID 0000.0001) xgOrigin = /* X-axis origin of West  edge (cartesian: m, lat-lon: deg.) */
(PID.TID 0000.0001)                 0.000000000000000E+00
(PID.TID 0000.0001)     ;
(PID.TID 0000.0001) ygOrigin = /* Y-axis origin of South edge (cartesian: m, lat-lon: deg.) */
(PID.TID 0000.0001)                -8.000000000000000E+01
(PID.TID 0000.0001)     ;
(PID.TID 0000.0001) rSphere =  /* Radius ( ignored - cartesian, m - spherical ) */
(PID.TID 0000.0001)                 6.370000000000000E+06
(PID.TID 0000.0001)     ;
(PID.TID 0000.0001) deepAtmosphere = /* Deep/Shallow Atmosphere flag (True/False) */
(PID.TID 0000.0001)                   F
(PID.TID 0000.0001)     ;
(PID.TID 0000.0001) xC =  /* xC(:,1,:,1) : P-point X coord ( deg. or m if cartesian) */
(PID.TID 0000.0001)                 1.500000000000001E-01,      /* I =  1 */
(PID.TID 0000.0001)                 4.500000000000001E-01,      /* I =  2 */
(PID.TID 0000.0001)                 7.500000000000002E-01,      /* I =  3 */
(PID.TID 0000.0001)                 1.050000000000000E+00,      /* I =  4 */
(PID.TID 0000.0001)                 1.350000000000000E+00,      /* I =  5 */
(PID.TID 0000.0001)                 1.650000000000000E+00,      /* I =  6 */
(PID.TID 0000.0001)                 1.950000000000000E+00,      /* I =  7 */
(PID.TID 0000.0001)                 2.250000000000000E+00,      /* I =  8 */
(PID.TID 0000.0001)                 2.550000000000000E+00,      /* I =  9 */
(PID.TID 0000.0001)                 2.850000000000000E+00,      /* I = 10 */
(PID.TID 0000.0001)                 3.149999999999999E+00,      /* I = 11 */
(PID.TID 0000.0001)                 3.449999999999999E+00,      /* I = 12 */
(PID.TID 0000.0001)                 3.749999999999999E+00,      /* I = 13 */
(PID.TID 0000.0001)                 4.049999999999999E+00,      /* I = 14 */
(PID.TID 0000.0001)                 4.350000000000000E+00,      /* I = 15 */
(PID.TID 0000.0001)                 4.649999999999999E+00,      /* I = 16 */
(PID.TID 0000.0001)                 4.949999999999999E+00,      /* I = 17 */
(PID.TID 0000.0001)                 5.249999999999998E+00,      /* I = 18 */
(PID.TID 0000.0001)                 5.549999999999999E+00,      /* I = 19 */
(PID.TID 0000.0001)                 5.849999999999998E+00,      /* I = 20 */
(PID.TID 0000.0001)                 6.149999999999999E+00,      /* I = 21 */
(PID.TID 0000.0001)                 6.449999999999998E+00,      /* I = 22 */
(PID.TID 0000.0001)                 6.749999999999998E+00,      /* I = 23 */
(PID.TID 0000.0001)                 7.049999999999997E+00,      /* I = 24 */
(PID.TID 0000.0001)                 7.349999999999997E+00,      /* I = 25 */
(PID.TID 0000.0001)                 7.649999999999997E+00,      /* I = 26 */
(PID.TID 0000.0001)                 7.949999999999998E+00,      /* I = 27 */
(PID.TID 0000.0001)                 8.249999999999998E+00,      /* I = 28 */
(PID.TID 0000.0001)                 8.549999999999999E+00,      /* I = 29 */
(PID.TID 0000.0001)                 8.850000000000000E+00,      /* I = 30 */
(PID.TID 0000.0001)                 9.150000000000000E+00,      /* I = 31 */
(PID.TID 0000.0001)                 9.450000000000001E+00,      /* I = 32 */
(PID.TID 0000.0001)                 9.750000000000002E+00,      /* I = 33 */
(PID.TID 0000.0001)                 1.005000000000000E+01,      /* I = 34 */
(PID.TID 0000.0001)                 1.035000000000000E+01,      /* I = 35 */
(PID.TID 0000.0001)                 1.065000000000000E+01,      /* I = 36 */
(PID.TID 0000.0001)                 1.095000000000001E+01,      /* I = 37 */
(PID.TID 0000.0001)                 1.125000000000001E+01,      /* I = 38 */
(PID.TID 0000.0001)                 1.155000000000000E+01,      /* I = 39 */
(PID.TID 0000.0001)                 1.185000000000001E+01,      /* I = 40 */
(PID.TID 0000.0001)                 1.215000000000001E+01,      /* I = 41 */
(PID.TID 0000.0001)                 1.245000000000001E+01,      /* I = 42 */
(PID.TID 0000.0001)                 1.275000000000001E+01,      /* I = 43 */
(PID.TID 0000.0001)                 1.305000000000001E+01,      /* I = 44 */
(PID.TID 0000.0001)                 1.335000000000001E+01,      /* I = 45 */
(PID.TID 0000.0001)                 1.365000000000001E+01,      /* I = 46 */
(PID.TID 0000.0001)                 1.395000000000001E+01,      /* I = 47 */
(PID.TID 0000.0001)                 1.425000000000001E+01,      /* I = 48 */
(PID.TID 0000.0001)                 1.455000000000001E+01,      /* I = 49 */
(PID.TID 0000.0001)                 1.485000000000001E+01       /* I = 50 */
(PID.TID 0000.0001)     ;
(PID.TID 0000.0001) yC =  /* yC(1,:,1,:) : P-point Y coord ( deg. or m if cartesian) */
(PID.TID 0000.0001)                -7.995000000000000E+01,      /* J =  1 */
(PID.TID 0000.0001)                -7.985000000000001E+01,      /* J =  2 */
(PID.TID 0000.0001)                -7.975000000000001E+01,      /* J =  3 */
(PID.TID 0000.0001)      . . .
(PID.TID 0000.0001)                -7.775000000000013E+01,      /* J = 23 */
(PID.TID 0000.0001)                -7.765000000000013E+01,      /* J = 24 */
(PID.TID 0000.0001)                -7.755000000000014E+01,      /* J = 25 */
(PID.TID 0000.0001)                -7.745000000000014E+01,      /* J = 26 */
(PID.TID 0000.0001)                -7.735000000000015E+01,      /* J = 27 */
(PID.TID 0000.0001)                -7.725000000000016E+01,      /* J = 28 */
(PID.TID 0000.0001)      . . .
(PID.TID 0000.0001)                -7.525000000000027E+01,      /* J = 48 */
(PID.TID 0000.0001)                -7.515000000000028E+01,      /* J = 49 */
(PID.TID 0000.0001)                -7.505000000000028E+01,      /* J = 50 */
(PID.TID 0000.0001)                -7.495000000000029E+01,      /* J = 51 */
(PID.TID 0000.0001)                -7.485000000000029E+01,      /* J = 52 */
(PID.TID 0000.0001)                -7.475000000000030E+01,      /* J = 53 */
(PID.TID 0000.0001)      . . .
(PID.TID 0000.0001)                -7.275000000000041E+01,      /* J = 73 */
(PID.TID 0000.0001)                -7.265000000000042E+01,      /* J = 74 */
(PID.TID 0000.0001)                -7.255000000000042E+01,      /* J = 75 */
(PID.TID 0000.0001)                -7.245000000000043E+01,      /* J = 76 */
(PID.TID 0000.0001)                -7.235000000000043E+01,      /* J = 77 */
(PID.TID 0000.0001)                -7.225000000000044E+01,      /* J = 78 */
(PID.TID 0000.0001)      . . .
(PID.TID 0000.0001)                -7.025000000000055E+01,      /* J = 98 */
(PID.TID 0000.0001)                -7.015000000000056E+01,      /* J = 99 */
(PID.TID 0000.0001)                -7.005000000000057E+01       /* J =100 */
(PID.TID 0000.0001)     ;
(PID.TID 0000.0001) rcoord = /* P-point R coordinate (  units of r ) */
(PID.TID 0000.0001)                -1.500000000000000E+01,      /* K =  1 */
(PID.TID 0000.0001)                -4.500000000000000E+01,      /* K =  2 */
(PID.TID 0000.0001)                -7.500000000000000E+01,      /* K =  3 */
(PID.TID 0000.0001)                -1.050000000000000E+02,      /* K =  4 */
(PID.TID 0000.0001)                -1.350000000000000E+02,      /* K =  5 */
(PID.TID 0000.0001)                -1.650000000000000E+02,      /* K =  6 */
(PID.TID 0000.0001)                -1.950000000000000E+02,      /* K =  7 */
(PID.TID 0000.0001)                -2.250000000000000E+02,      /* K =  8 */
(PID.TID 0000.0001)                -2.550000000000000E+02,      /* K =  9 */
(PID.TID 0000.0001)                -2.850000000000000E+02,      /* K = 10 */
(PID.TID 0000.0001)                -3.150000000000000E+02,      /* K = 11 */
(PID.TID 0000.0001)                -3.450000000000000E+02,      /* K = 12 */
(PID.TID 0000.0001)                -3.750000000000000E+02,      /* K = 13 */
(PID.TID 0000.0001)                -4.050000000000000E+02,      /* K = 14 */
(PID.TID 0000.0001)                -4.350000000000000E+02,      /* K = 15 */
(PID.TID 0000.0001)                -4.650000000000000E+02,      /* K = 16 */
(PID.TID 0000.0001)                -4.950000000000000E+02,      /* K = 17 */
(PID.TID 0000.0001)                -5.250000000000000E+02,      /* K = 18 */
(PID.TID 0000.0001)                -5.550000000000000E+02,      /* K = 19 */
(PID.TID 0000.0001)                -5.850000000000000E+02,      /* K = 20 */
(PID.TID 0000.0001)                -6.150000000000000E+02,      /* K = 21 */
(PID.TID 0000.0001)                -6.450000000000000E+02,      /* K = 22 */
(PID.TID 0000.0001)                -6.750000000000000E+02,      /* K = 23 */
(PID.TID 0000.0001)                -7.050000000000000E+02,      /* K = 24 */
(PID.TID 0000.0001)                -7.350000000000000E+02,      /* K = 25 */
(PID.TID 0000.0001)                -7.650000000000000E+02,      /* K = 26 */
(PID.TID 0000.0001)                -7.950000000000000E+02,      /* K = 27 */
(PID.TID 0000.0001)                -8.250000000000000E+02,      /* K = 28 */
(PID.TID 0000.0001)                -8.550000000000000E+02,      /* K = 29 */
(PID.TID 0000.0001)                -8.850000000000000E+02       /* K = 30 */
(PID.TID 0000.0001)     ;
(PID.TID 0000.0001) rF =   /* W-Interf. R coordinate (  units of r ) */
(PID.TID 0000.0001)                 0.000000000000000E+00,      /* K =  1 */
(PID.TID 0000.0001)                -3.000000000000000E+01,      /* K =  2 */
(PID.TID 0000.0001)                -6.000000000000000E+01,      /* K =  3 */
(PID.TID 0000.0001)                -9.000000000000000E+01,      /* K =  4 */
(PID.TID 0000.0001)                -1.200000000000000E+02,      /* K =  5 */
(PID.TID 0000.0001)                -1.500000000000000E+02,      /* K =  6 */
(PID.TID 0000.0001)                -1.800000000000000E+02,      /* K =  7 */
(PID.TID 0000.0001)                -2.100000000000000E+02,      /* K =  8 */
(PID.TID 0000.0001)                -2.400000000000000E+02,      /* K =  9 */
(PID.TID 0000.0001)                -2.700000000000000E+02,      /* K = 10 */
(PID.TID 0000.0001)                -3.000000000000000E+02,      /* K = 11 */
(PID.TID 0000.0001)                -3.300000000000000E+02,      /* K = 12 */
(PID.TID 0000.0001)                -3.600000000000000E+02,      /* K = 13 */
(PID.TID 0000.0001)                -3.900000000000000E+02,      /* K = 14 */
(PID.TID 0000.0001)                -4.200000000000000E+02,      /* K = 15 */
(PID.TID 0000.0001)                -4.500000000000000E+02,      /* K = 16 */
(PID.TID 0000.0001)                -4.800000000000000E+02,      /* K = 17 */
(PID.TID 0000.0001)                -5.100000000000000E+02,      /* K = 18 */
(PID.TID 0000.0001)                -5.400000000000000E+02,      /* K = 19 */
(PID.TID 0000.0001)                -5.700000000000000E+02,      /* K = 20 */
(PID.TID 0000.0001)                -6.000000000000000E+02,      /* K = 21 */
(PID.TID 0000.0001)                -6.300000000000000E+02,      /* K = 22 */
(PID.TID 0000.0001)                -6.600000000000000E+02,      /* K = 23 */
(PID.TID 0000.0001)                -6.900000000000000E+02,      /* K = 24 */
(PID.TID 0000.0001)                -7.200000000000000E+02,      /* K = 25 */
(PID.TID 0000.0001)                -7.500000000000000E+02,      /* K = 26 */
(PID.TID 0000.0001)                -7.800000000000000E+02,      /* K = 27 */
(PID.TID 0000.0001)                -8.100000000000000E+02,      /* K = 28 */
(PID.TID 0000.0001)                -8.400000000000000E+02,      /* K = 29 */
(PID.TID 0000.0001)                -8.700000000000000E+02,      /* K = 30 */
(PID.TID 0000.0001)                -9.000000000000000E+02       /* K = 31 */
(PID.TID 0000.0001)     ;
(PID.TID 0000.0001) deepFacC = /* deep-model grid factor @ cell-Center (-) */
(PID.TID 0000.0001)    30 @  1.000000000000000E+00              /* K =  1: 30 */
(PID.TID 0000.0001)     ;
(PID.TID 0000.0001) deepFacF = /* deep-model grid factor @ W-Interface (-) */
(PID.TID 0000.0001)    31 @  1.000000000000000E+00              /* K =  1: 31 */
(PID.TID 0000.0001)     ;
(PID.TID 0000.0001) rVel2wUnit = /* convert units: rVel -> wSpeed (=1 if z-coord)*/
(PID.TID 0000.0001)    31 @  1.000000000000000E+00              /* K =  1: 31 */
(PID.TID 0000.0001)     ;
(PID.TID 0000.0001) wUnit2rVel = /* convert units: wSpeed -> rVel (=1 if z-coord)*/
(PID.TID 0000.0001)    31 @  1.000000000000000E+00              /* K =  1: 31 */
(PID.TID 0000.0001)     ;
(PID.TID 0000.0001) dBdrRef = /* Vertical grad. of reference buoyancy [(m/s/r)^2] */
(PID.TID 0000.0001)    30 @  0.000000000000000E+00              /* K =  1: 30 */
(PID.TID 0000.0001)     ;
(PID.TID 0000.0001) rotateGrid = /* use rotated grid ( True/False ) */
(PID.TID 0000.0001)                   F
(PID.TID 0000.0001)     ;
(PID.TID 0000.0001) phiEuler = /* Euler angle, rotation about original z-coordinate [rad] */
(PID.TID 0000.0001)                 0.000000000000000E+00
(PID.TID 0000.0001)     ;
(PID.TID 0000.0001) thetaEuler = /* Euler angle, rotation about new x-coordinate [rad] */
(PID.TID 0000.0001)                 0.000000000000000E+00
(PID.TID 0000.0001)     ;
(PID.TID 0000.0001) psiEuler = /* Euler angle, rotation about new z-coordinate [rad] */
(PID.TID 0000.0001)                 0.000000000000000E+00
(PID.TID 0000.0001)     ;
(PID.TID 0000.0001) dxF =  /* dxF(:,1,:,1) ( units: m ) */
(PID.TID 0000.0001)    50 @  5.820391490558872E+03              /* I =  1: 50 */
(PID.TID 0000.0001)     ;
(PID.TID 0000.0001) dxF =  /* dxF(1,:,1,:) ( units: m ) */
(PID.TID 0000.0001)                 5.820391490558872E+03,      /* J =  1 */
(PID.TID 0000.0001)                 5.877701765291692E+03,      /* J =  2 */
(PID.TID 0000.0001)                 5.934994135525598E+03,      /* J =  3 */
(PID.TID 0000.0001)      . . .
(PID.TID 0000.0001)                 7.076813247621209E+03,      /* J = 23 */
(PID.TID 0000.0001)                 7.133689397375063E+03,      /* J = 24 */
(PID.TID 0000.0001)                 7.190543816673855E+03,      /* J = 25 */
(PID.TID 0000.0001)                 7.247376332329164E+03,      /* J = 26 */
(PID.TID 0000.0001)                 7.304186771219292E+03,      /* J = 27 */
(PID.TID 0000.0001)                 7.360974960289787E+03,      /* J = 28 */
(PID.TID 0000.0001)      . . .
(PID.TID 0000.0001)                 8.491800393599013E+03,      /* J = 48 */
(PID.TID 0000.0001)                 8.548081485571185E+03,      /* J = 49 */
(PID.TID 0000.0001)                 8.604336538604706E+03,      /* J = 50 */
(PID.TID 0000.0001)                 8.660565381336924E+03,      /* J = 51 */
(PID.TID 0000.0001)                 8.716767842485036E+03,      /* J = 52 */
(PID.TID 0000.0001)                 8.772943750846600E+03,      /* J = 53 */
(PID.TID 0000.0001)      . . .
(PID.TID 0000.0001)                 9.890622914885218E+03,      /* J = 73 */
(PID.TID 0000.0001)                 9.946201814818334E+03,      /* J = 74 */
(PID.TID 0000.0001)                 1.000175041689580E+04,      /* J = 75 */
(PID.TID 0000.0001)                 1.005726855190695E+04,      /* J = 76 */
(PID.TID 0000.0001)                 1.011275605073392E+04,      /* J = 77 */
(PID.TID 0000.0001)                 1.016821274435215E+04,      /* J = 78 */
(PID.TID 0000.0001)      . . .
(PID.TID 0000.0001)                 1.127061807330668E+04,      /* J = 98 */
(PID.TID 0000.0001)                 1.132538898360582E+04,      /* J = 99 */
(PID.TID 0000.0001)                 1.138012539480601E+04       /* J =100 */
(PID.TID 0000.0001)     ;
(PID.TID 0000.0001) dyF =  /* dyF(:,1,:,1) ( units: m ) */
(PID.TID 0000.0001)    50 @  1.111774733520388E+04              /* I =  1: 50 */
(PID.TID 0000.0001)     ;
(PID.TID 0000.0001) dyF =  /* dyF(1,:,1,:) ( units: m ) */
(PID.TID 0000.0001)   100 @  1.111774733520388E+04              /* J =  1:100 */
(PID.TID 0000.0001)     ;
(PID.TID 0000.0001) dxG =  /* dxG(:,1,:,1) ( units: m ) */
(PID.TID 0000.0001)    50 @  5.791729693558576E+03              /* I =  1: 50 */
(PID.TID 0000.0001)     ;
(PID.TID 0000.0001) dxG =  /* dxG(1,:,1,:) ( units: m ) */
(PID.TID 0000.0001)                 5.791729693558576E+03,      /* J =  1 */
(PID.TID 0000.0001)                 5.849048855077854E+03,      /* J =  2 */
(PID.TID 0000.0001)                 5.906350199379949E+03,      /* J =  3 */
(PID.TID 0000.0001)      . . .
(PID.TID 0000.0001)                 7.048367077963129E+03,      /* J = 23 */
(PID.TID 0000.0001)                 7.105254027978149E+03,      /* J = 24 */
(PID.TID 0000.0001)                 7.162119334157175E+03,      /* J = 25 */
(PID.TID 0000.0001)                 7.218962823278620E+03,      /* J = 26 */
(PID.TID 0000.0001)                 7.275784322187360E+03,      /* J = 27 */
(PID.TID 0000.0001)                 7.332583657795253E+03,      /* J = 28 */
(PID.TID 0000.0001)      . . .
(PID.TID 0000.0001)                 8.463650136583461E+03,      /* J = 48 */
(PID.TID 0000.0001)                 8.519944183739159E+03,      /* J = 49 */
(PID.TID 0000.0001)                 8.576212277667308E+03,      /* J = 50 */
(PID.TID 0000.0001)                 8.632454246965530E+03,      /* J = 51 */
(PID.TID 0000.0001)                 8.688669920311038E+03,      /* J = 52 */
(PID.TID 0000.0001)                 8.744859126461139E+03,      /* J = 53 */
(PID.TID 0000.0001)      . . .
(PID.TID 0000.0001)                 9.862822156126382E+03,      /* J = 73 */
(PID.TID 0000.0001)                 9.918416141504455E+03,      /* J = 74 */
(PID.TID 0000.0001)                 9.973979913666863E+03,      /* J = 75 */
(PID.TID 0000.0001)                 1.002951330335672E+04,      /* J = 76 */
(PID.TID 0000.0001)                 1.008501614140969E+04,      /* J = 77 */
(PID.TID 0000.0001)                 1.014048825875450E+04,      /* J = 78 */
(PID.TID 0000.0001)      . . .
(PID.TID 0000.0001)                 1.124321973312895E+04,      /* J = 98 */
(PID.TID 0000.0001)                 1.129800783041847E+04,      /* J = 99 */
(PID.TID 0000.0001)                 1.135276151201679E+04       /* J =100 */
(PID.TID 0000.0001)     ;
(PID.TID 0000.0001) dyG =  /* dyG(:,1,:,1) ( units: m ) */
(PID.TID 0000.0001)    50 @  1.111774733520388E+04              /* I =  1: 50 */
(PID.TID 0000.0001)     ;
(PID.TID 0000.0001) dyG =  /* dyG(1,:,1,:) ( units: m ) */
(PID.TID 0000.0001)   100 @  1.111774733520388E+04              /* J =  1:100 */
(PID.TID 0000.0001)     ;
(PID.TID 0000.0001) dxC =  /* dxC(:,1,:,1) ( units: m ) */
(PID.TID 0000.0001)    50 @  5.820391490558872E+03              /* I =  1: 50 */
(PID.TID 0000.0001)     ;
(PID.TID 0000.0001) dxC =  /* dxC(1,:,1,:) ( units: m ) */
(PID.TID 0000.0001)                 5.820391490558872E+03,      /* J =  1 */
(PID.TID 0000.0001)                 5.877701765291692E+03,      /* J =  2 */
(PID.TID 0000.0001)                 5.934994135525598E+03,      /* J =  3 */
(PID.TID 0000.0001)      . . .
(PID.TID 0000.0001)                 7.076813247621209E+03,      /* J = 23 */
(PID.TID 0000.0001)                 7.133689397375063E+03,      /* J = 24 */
(PID.TID 0000.0001)                 7.190543816673855E+03,      /* J = 25 */
(PID.TID 0000.0001)                 7.247376332329164E+03,      /* J = 26 */
(PID.TID 0000.0001)                 7.304186771219292E+03,      /* J = 27 */
(PID.TID 0000.0001)                 7.360974960289787E+03,      /* J = 28 */
(PID.TID 0000.0001)      . . .
(PID.TID 0000.0001)                 8.491800393599013E+03,      /* J = 48 */
(PID.TID 0000.0001)                 8.548081485571185E+03,      /* J = 49 */
(PID.TID 0000.0001)                 8.604336538604706E+03,      /* J = 50 */
(PID.TID 0000.0001)                 8.660565381336924E+03,      /* J = 51 */
(PID.TID 0000.0001)                 8.716767842485036E+03,      /* J = 52 */
(PID.TID 0000.0001)                 8.772943750846600E+03,      /* J = 53 */
(PID.TID 0000.0001)      . . .
(PID.TID 0000.0001)                 9.890622914885218E+03,      /* J = 73 */
(PID.TID 0000.0001)                 9.946201814818334E+03,      /* J = 74 */
(PID.TID 0000.0001)                 1.000175041689580E+04,      /* J = 75 */
(PID.TID 0000.0001)                 1.005726855190695E+04,      /* J = 76 */
(PID.TID 0000.0001)                 1.011275605073392E+04,      /* J = 77 */
(PID.TID 0000.0001)                 1.016821274435215E+04,      /* J = 78 */
(PID.TID 0000.0001)      . . .
(PID.TID 0000.0001)                 1.127061807330668E+04,      /* J = 98 */
(PID.TID 0000.0001)                 1.132538898360582E+04,      /* J = 99 */
(PID.TID 0000.0001)                 1.138012539480601E+04       /* J =100 */
(PID.TID 0000.0001)     ;
(PID.TID 0000.0001) dyC =  /* dyC(:,1,:,1) ( units: m ) */
(PID.TID 0000.0001)    50 @  1.111774733520388E+04              /* I =  1: 50 */
(PID.TID 0000.0001)     ;
(PID.TID 0000.0001) dyC =  /* dyC(1,:,1,:) ( units: m ) */
(PID.TID 0000.0001)   100 @  1.111774733520388E+04              /* J =  1:100 */
(PID.TID 0000.0001)     ;
(PID.TID 0000.0001) dxV =  /* dxV(:,1,:,1) ( units: m ) */
(PID.TID 0000.0001)    50 @  5.791729693558576E+03              /* I =  1: 50 */
(PID.TID 0000.0001)     ;
(PID.TID 0000.0001) dxV =  /* dxV(1,:,1,:) ( units: m ) */
(PID.TID 0000.0001)                 5.791729693558576E+03,      /* J =  1 */
(PID.TID 0000.0001)                 5.849048855077854E+03,      /* J =  2 */
(PID.TID 0000.0001)                 5.906350199379949E+03,      /* J =  3 */
(PID.TID 0000.0001)      . . .
(PID.TID 0000.0001)                 7.048367077963129E+03,      /* J = 23 */
(PID.TID 0000.0001)                 7.105254027978149E+03,      /* J = 24 */
(PID.TID 0000.0001)                 7.162119334157175E+03,      /* J = 25 */
(PID.TID 0000.0001)                 7.218962823278620E+03,      /* J = 26 */
(PID.TID 0000.0001)                 7.275784322187360E+03,      /* J = 27 */
(PID.TID 0000.0001)                 7.332583657795253E+03,      /* J = 28 */
(PID.TID 0000.0001)      . . .
(PID.TID 0000.0001)                 8.463650136583461E+03,      /* J = 48 */
(PID.TID 0000.0001)                 8.519944183739159E+03,      /* J = 49 */
(PID.TID 0000.0001)                 8.576212277667308E+03,      /* J = 50 */
(PID.TID 0000.0001)                 8.632454246965530E+03,      /* J = 51 */
(PID.TID 0000.0001)                 8.688669920311038E+03,      /* J = 52 */
(PID.TID 0000.0001)                 8.744859126461139E+03,      /* J = 53 */
(PID.TID 0000.0001)      . . .
(PID.TID 0000.0001)                 9.862822156126382E+03,      /* J = 73 */
(PID.TID 0000.0001)                 9.918416141504455E+03,      /* J = 74 */
(PID.TID 0000.0001)                 9.973979913666863E+03,      /* J = 75 */
(PID.TID 0000.0001)                 1.002951330335672E+04,      /* J = 76 */
(PID.TID 0000.0001)                 1.008501614140969E+04,      /* J = 77 */
(PID.TID 0000.0001)                 1.014048825875450E+04,      /* J = 78 */
(PID.TID 0000.0001)      . . .
(PID.TID 0000.0001)                 1.124321973312895E+04,      /* J = 98 */
(PID.TID 0000.0001)                 1.129800783041847E+04,      /* J = 99 */
(PID.TID 0000.0001)                 1.135276151201679E+04       /* J =100 */
(PID.TID 0000.0001)     ;
(PID.TID 0000.0001) dyU =  /* dyU(:,1,:,1) ( units: m ) */
(PID.TID 0000.0001)    50 @  1.111774733520388E+04              /* I =  1: 50 */
(PID.TID 0000.0001)     ;
(PID.TID 0000.0001) dyU =  /* dyU(1,:,1,:) ( units: m ) */
(PID.TID 0000.0001)   100 @  1.111774733520388E+04              /* J =  1:100 */
(PID.TID 0000.0001)     ;
(PID.TID 0000.0001) rA  =  /* rA (:,1,:,1) ( units: m^2 ) */
(PID.TID 0000.0001)    50 @  6.470963377080289E+07              /* I =  1: 50 */
(PID.TID 0000.0001)     ;
(PID.TID 0000.0001) rA  =  /* rA (1,:,1,:) ( units: m^2 ) */
(PID.TID 0000.0001)                 6.470963377080289E+07,      /* J =  1 */
(PID.TID 0000.0001)                 6.534679484410104E+07,      /* J =  2 */
(PID.TID 0000.0001)                 6.598375685977945E+07,      /* J =  3 */
(PID.TID 0000.0001)      . . .
(PID.TID 0000.0001)                 7.867821163932665E+07,      /* J = 23 */
(PID.TID 0000.0001)                 7.931054622142966E+07,      /* J = 24 */
(PID.TID 0000.0001)                 7.994263920984067E+07,      /* J = 25 */
(PID.TID 0000.0001)                 8.057448867913349E+07,      /* J = 26 */
(PID.TID 0000.0001)                 8.120609270456599E+07,      /* J = 27 */
(PID.TID 0000.0001)                 8.183744936212724E+07,      /* J = 28 */
(PID.TID 0000.0001)      . . .
(PID.TID 0000.0001)                 9.440967921416211E+07,      /* J = 48 */
(PID.TID 0000.0001)                 9.503539809503193E+07,      /* J = 49 */
(PID.TID 0000.0001)                 9.566082748163140E+07,      /* J = 50 */
(PID.TID 0000.0001)                 9.628596546870193E+07,      /* J = 51 */
(PID.TID 0000.0001)                 9.691081015209354E+07,      /* J = 52 */
(PID.TID 0000.0001)                 9.753535962826957E+07,      /* J = 53 */
(PID.TID 0000.0001)      . . .
(PID.TID 0000.0001)                 1.099614325987181E+08,      /* J = 73 */
(PID.TID 0000.0001)                 1.105793446869293E+08,      /* J = 74 */
(PID.TID 0000.0001)                 1.111969199312560E+08,      /* J = 75 */
(PID.TID 0000.0001)                 1.118141564504991E+08,      /* J = 76 */
(PID.TID 0000.0001)                 1.124310523644033E+08,      /* J = 77 */
(PID.TID 0000.0001)                 1.130476057938687E+08,      /* J = 78 */
(PID.TID 0000.0001)      . . .
(PID.TID 0000.0001)                 1.253038681465364E+08,      /* J = 98 */
(PID.TID 0000.0001)                 1.259127972112936E+08,      /* J = 99 */
(PID.TID 0000.0001)                 1.265213427237870E+08       /* J =100 */
(PID.TID 0000.0001)     ;
(PID.TID 0000.0001) rAw =  /* rAw(:,1,:,1) ( units: m^2 ) */
(PID.TID 0000.0001)    50 @  6.470963377080289E+07              /* I =  1: 50 */
(PID.TID 0000.0001)     ;
(PID.TID 0000.0001) rAw =  /* rAw(1,:,1,:) ( units: m^2 ) */
(PID.TID 0000.0001)                 6.470963377080289E+07,      /* J =  1 */
(PID.TID 0000.0001)                 6.534679484410104E+07,      /* J =  2 */
(PID.TID 0000.0001)                 6.598375685977945E+07,      /* J =  3 */
(PID.TID 0000.0001)      . . .
(PID.TID 0000.0001)                 7.867821163932665E+07,      /* J = 23 */
(PID.TID 0000.0001)                 7.931054622142966E+07,      /* J = 24 */
(PID.TID 0000.0001)                 7.994263920984067E+07,      /* J = 25 */
(PID.TID 0000.0001)                 8.057448867913349E+07,      /* J = 26 */
(PID.TID 0000.0001)                 8.120609270456599E+07,      /* J = 27 */
(PID.TID 0000.0001)                 8.183744936212724E+07,      /* J = 28 */
(PID.TID 0000.0001)      . . .
(PID.TID 0000.0001)                 9.440967921416211E+07,      /* J = 48 */
(PID.TID 0000.0001)                 9.503539809503193E+07,      /* J = 49 */
(PID.TID 0000.0001)                 9.566082748163140E+07,      /* J = 50 */
(PID.TID 0000.0001)                 9.628596546870193E+07,      /* J = 51 */
(PID.TID 0000.0001)                 9.691081015209354E+07,      /* J = 52 */
(PID.TID 0000.0001)                 9.753535962826957E+07,      /* J = 53 */
(PID.TID 0000.0001)      . . .
(PID.TID 0000.0001)                 1.099614325987181E+08,      /* J = 73 */
(PID.TID 0000.0001)                 1.105793446869293E+08,      /* J = 74 */
(PID.TID 0000.0001)                 1.111969199312560E+08,      /* J = 75 */
(PID.TID 0000.0001)                 1.118141564504991E+08,      /* J = 76 */
(PID.TID 0000.0001)                 1.124310523644033E+08,      /* J = 77 */
(PID.TID 0000.0001)                 1.130476057938687E+08,      /* J = 78 */
(PID.TID 0000.0001)      . . .
(PID.TID 0000.0001)                 1.253038681465364E+08,      /* J = 98 */
(PID.TID 0000.0001)                 1.259127972112936E+08,      /* J = 99 */
(PID.TID 0000.0001)                 1.265213427237870E+08       /* J =100 */
(PID.TID 0000.0001)     ;
(PID.TID 0000.0001) rAs =  /* rAs(:,1,:,1) ( units: m^2 ) */
(PID.TID 0000.0001)    50 @  6.439097919401864E+07              /* I =  1: 50 */
(PID.TID 0000.0001)     ;
(PID.TID 0000.0001) rAs =  /* rAs(1,:,1,:) ( units: m^2 ) */
(PID.TID 0000.0001)                 6.439097919401864E+07,      /* J =  1 */
(PID.TID 0000.0001)                 6.502823906837179E+07,      /* J =  2 */
(PID.TID 0000.0001)                 6.566530085543716E+07,      /* J =  3 */
(PID.TID 0000.0001)      . . .
(PID.TID 0000.0001)                 7.836195435256335E+07,      /* J = 23 */
(PID.TID 0000.0001)                 7.899440900921808E+07,      /* J = 24 */
(PID.TID 0000.0001)                 7.962662303520055E+07,      /* J = 25 */
(PID.TID 0000.0001)                 8.025859450470714E+07,      /* J = 26 */
(PID.TID 0000.0001)                 8.089032149259475E+07,      /* J = 27 */
(PID.TID 0000.0001)                 8.152180207452223E+07,      /* J = 28 */
(PID.TID 0000.0001)      . . .
(PID.TID 0000.0001)                 9.409671180895932E+07,      /* J = 48 */
(PID.TID 0000.0001)                 9.472257472228888E+07,      /* J = 49 */
(PID.TID 0000.0001)                 9.534814909420149E+07,      /* J = 50 */
(PID.TID 0000.0001)                 9.597343301913190E+07,      /* J = 51 */
(PID.TID 0000.0001)                 9.659842459236403E+07,      /* J = 52 */
(PID.TID 0000.0001)                 9.722312190998378E+07,      /* J = 53 */
(PID.TID 0000.0001)      . . .
(PID.TID 0000.0001)                 1.096523508263446E+08,      /* J = 73 */
(PID.TID 0000.0001)                 1.102704306306916E+08,      /* J = 74 */
(PID.TID 0000.0001)                 1.108881745321664E+08,      /* J = 75 */
(PID.TID 0000.0001)                 1.115055806490511E+08,      /* J = 76 */
(PID.TID 0000.0001)                 1.121226471005947E+08,      /* J = 77 */
(PID.TID 0000.0001)                 1.127393720071080E+08,      /* J = 78 */
(PID.TID 0000.0001)      . . .
(PID.TID 0000.0001)                 1.249992603617116E+08,      /* J = 98 */
(PID.TID 0000.0001)                 1.256083805070198E+08,      /* J = 99 */
(PID.TID 0000.0001)                 1.262171180274426E+08       /* J =100 */
(PID.TID 0000.0001)     ;
(PID.TID 0000.0001) globalArea = /* Integrated horizontal Area (m^2) */
(PID.TID 0000.0001)                 4.665024516720134E+11
(PID.TID 0000.0001)     ;
(PID.TID 0000.0001) // =======================================================
(PID.TID 0000.0001) // End of Model config. summary
(PID.TID 0000.0001) // =======================================================
(PID.TID 0000.0001) 
(PID.TID 0000.0001) == Packages configuration : Check & print summary ==
(PID.TID 0000.0001) 
(PID.TID 0000.0001) SHELFICE_CHECK: #define ALLOW_SHELFICE
(PID.TID 0000.0001) CTRL_CHECK: ctrl package
(PID.TID 0000.0001) COST_CHECK: cost package
(PID.TID 0000.0001) GRDCHK_CHECK: grdchk package
(PID.TID 0000.0001) GAD_CHECK: #define ALLOW_GENERIC_ADVDIFF
(PID.TID 0000.0001) // =======================================================
(PID.TID 0000.0001) // CONFIG_CHECK : Normal End
(PID.TID 0000.0001) // =======================================================
(PID.TID 0000.0001) 
(PID.TID 0000.0001) INI_CG2D: CG2D normalisation factor =  1.0404366262810520E-03
(PID.TID 0000.0001) 
(PID.TID 0000.0001)  nRecords = 243 ; filePrec =  64 ; fileIter =      8640
(PID.TID 0000.0001)     nDims =   2 , dims:
(PID.TID 0000.0001)    1:  50   1  50
(PID.TID 0000.0001)    2: 100   1 100
(PID.TID 0000.0001)     nFlds =  11 , nFl3D =   8 , fields:
(PID.TID 0000.0001)  >Uvel    < >Vvel    < >Theta   < >Salt    < >GuNm1   < >GvNm1   < >GtNm1   < >GsNm1   < >EtaN    < >dEtaHdt < >EtaH    <
(PID.TID 0000.0001)   nTimRec =   0 , timeList:
(PID.TID 0000.0001) READ_MFLDS_3D_RL: read field: "Uvel    ", #   1 in fldList, rec=   1
(PID.TID 0000.0001) READ_MFLDS_3D_RL: read field: "Vvel    ", #   2 in fldList, rec=   2
(PID.TID 0000.0001) READ_MFLDS_3D_RL: read field: "Theta   ", #   3 in fldList, rec=   3
(PID.TID 0000.0001) READ_MFLDS_3D_RL: read field: "Salt    ", #   4 in fldList, rec=   4
(PID.TID 0000.0001) READ_MFLDS_3D_RL: read field: "GuNm1   ", #   5 in fldList, rec=   5
(PID.TID 0000.0001) READ_MFLDS_3D_RL: read field: "GvNm1   ", #   6 in fldList, rec=   6
(PID.TID 0000.0001) READ_MFLDS_3D_RL: read field: "GtNm1   ", #   7 in fldList, rec=   7
(PID.TID 0000.0001) READ_MFLDS_3D_RL: read field: "GsNm1   ", #   8 in fldList, rec=   8
(PID.TID 0000.0001) READ_MFLDS_3D_RL: read field: "EtaN    ", #   9 in fldList, rec= 241
(PID.TID 0000.0001) READ_MFLDS_3D_RL: read field: "dEtaHdt ", #  10 in fldList, rec= 242
(PID.TID 0000.0001) READ_MFLDS_3D_RL: read field: "EtaH    ", #  11 in fldList, rec= 243
(PID.TID 0000.0001) READ_MFLDS_CHECK: - normal end ; reset MFLDS file-name: pickup.0000008640
(PID.TID 0000.0001) // =======================================================
(PID.TID 0000.0001) // Begin MONITOR dynamic field statistics
(PID.TID 0000.0001) // =======================================================
(PID.TID 0000.0001) %MON time_tsnumber                =                  8640
(PID.TID 0000.0001) %MON time_secondsf                =   1.5552000000000E+07
(PID.TID 0000.0001) %MON dynstat_eta_max              =   1.1547478263152E-02
(PID.TID 0000.0001) %MON dynstat_eta_min              =  -2.6792518859505E-03
(PID.TID 0000.0001) %MON dynstat_eta_mean             =  -2.8068109805926E-16
(PID.TID 0000.0001) %MON dynstat_eta_sd               =   1.0200397966504E-03
(PID.TID 0000.0001) %MON dynstat_eta_del2             =   2.5371559200346E-05
(PID.TID 0000.0001) %MON dynstat_uvel_max             =   7.0225293882088E-03
(PID.TID 0000.0001) %MON dynstat_uvel_min             =  -1.1431056075099E-02
(PID.TID 0000.0001) %MON dynstat_uvel_mean            =   2.8733073796801E-05
(PID.TID 0000.0001) %MON dynstat_uvel_sd              =   1.1583626065941E-03
(PID.TID 0000.0001) %MON dynstat_uvel_del2            =   1.2791047697505E-06
(PID.TID 0000.0001) %MON dynstat_vvel_max             =   3.9338955473099E-02
(PID.TID 0000.0001) %MON dynstat_vvel_min             =  -1.3256941080851E-02
(PID.TID 0000.0001) %MON dynstat_vvel_mean            =  -9.2900221670288E-08
(PID.TID 0000.0001) %MON dynstat_vvel_sd              =   2.7751498348025E-03
(PID.TID 0000.0001) %MON dynstat_vvel_del2            =   4.9212700380925E-06
(PID.TID 0000.0001) %MON dynstat_wvel_max             =   4.2878246713501E-05
(PID.TID 0000.0001) %MON dynstat_wvel_min             =  -1.2010769874736E-04
(PID.TID 0000.0001) %MON dynstat_wvel_mean            =  -2.5100714936910E-10
(PID.TID 0000.0001) %MON dynstat_wvel_sd              =   4.2032395307098E-06
(PID.TID 0000.0001) %MON dynstat_wvel_del2            =   1.8639032682411E-08
(PID.TID 0000.0001) %MON dynstat_theta_max            =  -1.8364995507330E+00
(PID.TID 0000.0001) %MON dynstat_theta_min            =  -2.0000000000000E+00
(PID.TID 0000.0001) %MON dynstat_theta_mean           =  -1.9142907392764E+00
(PID.TID 0000.0001) %MON dynstat_theta_sd             =   3.1084271484804E-02
(PID.TID 0000.0001) %MON dynstat_theta_del2           =   6.3421694822618E-06
(PID.TID 0000.0001) %MON dynstat_salt_max             =   3.4425235078521E+01
(PID.TID 0000.0001) %MON dynstat_salt_min             =   3.4119681589956E+01
(PID.TID 0000.0001) %MON dynstat_salt_mean            =   3.4391243316100E+01
(PID.TID 0000.0001) %MON dynstat_salt_sd              =   2.3889924168882E-02
(PID.TID 0000.0001) %MON dynstat_salt_del2            =   3.3297324617653E-06
(PID.TID 0000.0001) %MON advcfl_uvel_max              =   3.4012427019763E-03
(PID.TID 0000.0001) %MON advcfl_vvel_max              =   6.3691067728586E-03
(PID.TID 0000.0001) %MON advcfl_wvel_max              =   7.2064619248418E-03
(PID.TID 0000.0001) %MON advcfl_W_hf_max              =   7.2064619248418E-03
(PID.TID 0000.0001) %MON pe_b_mean                    =   8.1423589033297E-09
(PID.TID 0000.0001) %MON ke_max                       =   7.7392672876306E-04
(PID.TID 0000.0001) %MON ke_mean                      =   4.4630639338804E-06
(PID.TID 0000.0001) %MON ke_vol                       =   2.9239970672188E+14
(PID.TID 0000.0001) %MON vort_r_min                   =  -2.3549373278644E-06
(PID.TID 0000.0001) %MON vort_r_max                   =   4.2468259247500E-06
(PID.TID 0000.0001) %MON vort_a_mean                  =  -1.4007197040362E-04
(PID.TID 0000.0001) %MON vort_a_sd                    =   1.7881275272606E-06
(PID.TID 0000.0001) %MON vort_p_mean                  =  -1.5023213754754E-04
(PID.TID 0000.0001) %MON vort_p_sd                    =   7.5278517385247E-05
(PID.TID 0000.0001) %MON surfExpan_theta_mean         =  -7.3220876444008E-23
(PID.TID 0000.0001) %MON surfExpan_salt_mean          =  -2.1811250098595E-11
(PID.TID 0000.0001) // =======================================================
(PID.TID 0000.0001) // End MONITOR dynamic field statistics
(PID.TID 0000.0001) // =======================================================
(PID.TID 0000.0001) SOLVE_FOR_PRESSURE: putPmEinXvector =    F
 cg2d: Sum(rhs),rhsMax =   7.04913205714849E-13  5.97849185308842E-02
(PID.TID 0000.0001)      cg2d_init_res =   5.92341668371497E+00
(PID.TID 0000.0001)      cg2d_iters(min,last) =      -1     208
(PID.TID 0000.0001)      cg2d_last_res =   8.67822750425203E-14
(PID.TID 0000.0001) // =======================================================
(PID.TID 0000.0001) // Begin MONITOR dynamic field statistics
(PID.TID 0000.0001) // =======================================================
(PID.TID 0000.0001) %MON time_tsnumber                =                  8641
(PID.TID 0000.0001) %MON time_secondsf                =   1.5553800000000E+07
(PID.TID 0000.0001) %MON dynstat_eta_max              =   1.1279822076878E-02
(PID.TID 0000.0001) %MON dynstat_eta_min              =  -3.3100296601727E-03
(PID.TID 0000.0001) %MON dynstat_eta_mean             =  -2.8016104580808E-16
(PID.TID 0000.0001) %MON dynstat_eta_sd               =   9.7653310004330E-04
(PID.TID 0000.0001) %MON dynstat_eta_del2             =   8.2711522597811E-06
(PID.TID 0000.0001) %MON dynstat_uvel_max             =   6.9546523249097E-03
(PID.TID 0000.0001) %MON dynstat_uvel_min             =  -1.2109501410476E-02
(PID.TID 0000.0001) %MON dynstat_uvel_mean            =   2.5153606286375E-05
(PID.TID 0000.0001) %MON dynstat_uvel_sd              =   1.1686713374826E-03
(PID.TID 0000.0001) %MON dynstat_uvel_del2            =   1.6837018566885E-06
(PID.TID 0000.0001) %MON dynstat_vvel_max             =   3.9571300737874E-02
(PID.TID 0000.0001) %MON dynstat_vvel_min             =  -1.3257550590396E-02
(PID.TID 0000.0001) %MON dynstat_vvel_mean            =   4.6554257967241E-06
(PID.TID 0000.0001) %MON dynstat_vvel_sd              =   2.7773763704932E-03
(PID.TID 0000.0001) %MON dynstat_vvel_del2            =   4.9154608674546E-06
(PID.TID 0000.0001) %MON dynstat_wvel_max             =   4.6557104689884E-05
(PID.TID 0000.0001) %MON dynstat_wvel_min             =  -1.2002082352331E-04
(PID.TID 0000.0001) %MON dynstat_wvel_mean            =   3.8661793881418E-09
(PID.TID 0000.0001) %MON dynstat_wvel_sd              =   4.1001623701305E-06
(PID.TID 0000.0001) %MON dynstat_wvel_del2            =   1.8109298304316E-08
(PID.TID 0000.0001) %MON dynstat_theta_max            =  -1.8769131970701E+00
(PID.TID 0000.0001) %MON dynstat_theta_min            =  -2.0008048161429E+00
(PID.TID 0000.0001) %MON dynstat_theta_mean           =  -1.9142990556139E+00
(PID.TID 0000.0001) %MON dynstat_theta_sd             =   3.1104912406250E-02
(PID.TID 0000.0001) %MON dynstat_theta_del2           =   6.2916716286142E-06
(PID.TID 0000.0001) %MON dynstat_salt_max             =   3.4409203525566E+01
(PID.TID 0000.0001) %MON dynstat_salt_min             =   3.4119633639567E+01
(PID.TID 0000.0001) %MON dynstat_salt_mean            =   3.4391240319866E+01
(PID.TID 0000.0001) %MON dynstat_salt_sd              =   2.3901820442165E-02
(PID.TID 0000.0001) %MON dynstat_salt_del2            =   3.3324212186675E-06
(PID.TID 0000.0001) %MON advcfl_uvel_max              =   3.6031100736767E-03
(PID.TID 0000.0001) %MON advcfl_vvel_max              =   6.4067242383384E-03
(PID.TID 0000.0001) %MON advcfl_wvel_max              =   7.2012494113988E-03
(PID.TID 0000.0001) %MON advcfl_W_hf_max              =   7.2012494113988E-03
(PID.TID 0000.0001) %MON pe_b_mean                    =  -3.5738124103394E-07
(PID.TID 0000.0001) %MON ke_max                       =   7.7643519629904E-04
(PID.TID 0000.0001) %MON ke_mean                      =   4.4808385284165E-06
(PID.TID 0000.0001) %MON ke_vol                       =   2.9239970672188E+14
(PID.TID 0000.0001) %MON vort_r_min                   =  -2.3577016281591E-06
(PID.TID 0000.0001) %MON vort_r_max                   =   4.2945409735847E-06
(PID.TID 0000.0001) %MON vort_a_mean                  =  -1.4007161344053E-04
(PID.TID 0000.0001) %MON vort_a_sd                    =   1.7877722066271E-06
(PID.TID 0000.0001) %MON vort_p_mean                  =  -1.5023175469274E-04
(PID.TID 0000.0001) %MON vort_p_sd                    =   7.5268868191356E-05
(PID.TID 0000.0001) %MON surfExpan_theta_mean         =   4.5844692937175E-12
(PID.TID 0000.0001) %MON surfExpan_salt_mean          =   1.5717023913138E-09
(PID.TID 0000.0001) // =======================================================
(PID.TID 0000.0001) // End MONITOR dynamic field statistics
(PID.TID 0000.0001) // =======================================================
 cg2d: Sum(rhs),rhsMax =   7.19866603392932E-13  5.85466144270072E-02
(PID.TID 0000.0001)      cg2d_init_res =   8.60491965298372E-02
(PID.TID 0000.0001)      cg2d_iters(min,last) =      -1     199
(PID.TID 0000.0001)      cg2d_last_res =   7.57331128685590E-14
(PID.TID 0000.0001) // =======================================================
(PID.TID 0000.0001) // Begin MONITOR dynamic field statistics
(PID.TID 0000.0001) // =======================================================
(PID.TID 0000.0001) %MON time_tsnumber                =                  8642
(PID.TID 0000.0001) %MON time_secondsf                =   1.5555600000000E+07
(PID.TID 0000.0001) %MON dynstat_eta_max              =   1.1443701754436E-02
(PID.TID 0000.0001) %MON dynstat_eta_min              =  -3.5259181765118E-03
(PID.TID 0000.0001) %MON dynstat_eta_mean             =  -2.7933391492632E-16
(PID.TID 0000.0001) %MON dynstat_eta_sd               =   1.0073356116205E-03
(PID.TID 0000.0001) %MON dynstat_eta_del2             =   8.2971957332744E-06
(PID.TID 0000.0001) %MON dynstat_uvel_max             =   6.9392272780177E-03
(PID.TID 0000.0001) %MON dynstat_uvel_min             =  -1.2349246738322E-02
(PID.TID 0000.0001) %MON dynstat_uvel_mean            =   2.5617734803699E-05
(PID.TID 0000.0001) %MON dynstat_uvel_sd              =   1.1757601014860E-03
(PID.TID 0000.0001) %MON dynstat_uvel_del2            =   1.8724444917948E-06
(PID.TID 0000.0001) %MON dynstat_vvel_max             =   3.9889220587781E-02
(PID.TID 0000.0001) %MON dynstat_vvel_min             =  -1.3257033535070E-02
(PID.TID 0000.0001) %MON dynstat_vvel_mean            =   8.3197696576730E-06
(PID.TID 0000.0001) %MON dynstat_vvel_sd              =   2.7837117787466E-03
(PID.TID 0000.0001) %MON dynstat_vvel_del2            =   4.9142495243746E-06
(PID.TID 0000.0001) %MON dynstat_wvel_max             =   4.6583784491086E-05
(PID.TID 0000.0001) %MON dynstat_wvel_min             =  -1.2002438774911E-04
(PID.TID 0000.0001) %MON dynstat_wvel_mean            =   7.2172840588352E-09
(PID.TID 0000.0001) %MON dynstat_wvel_sd              =   4.0323258296170E-06
(PID.TID 0000.0001) %MON dynstat_wvel_del2            =   1.7561098351636E-08
(PID.TID 0000.0001) %MON dynstat_theta_max            =  -1.8819023929593E+00
(PID.TID 0000.0001) %MON dynstat_theta_min            =  -2.0013242523923E+00
(PID.TID 0000.0001) %MON dynstat_theta_mean           =  -1.9143045846640E+00
(PID.TID 0000.0001) %MON dynstat_theta_sd             =   3.1118973708102E-02
(PID.TID 0000.0001) %MON dynstat_theta_del2           =   6.2636772001931E-06
(PID.TID 0000.0001) %MON dynstat_salt_max             =   3.4407234075256E+01
(PID.TID 0000.0001) %MON dynstat_salt_min             =   3.4119635387349E+01
(PID.TID 0000.0001) %MON dynstat_salt_mean            =   3.4391238319010E+01
(PID.TID 0000.0001) %MON dynstat_salt_sd              =   2.3909518560776E-02
(PID.TID 0000.0001) %MON dynstat_salt_del2            =   3.3333856110449E-06
(PID.TID 0000.0001) %MON advcfl_uvel_max              =   3.6744448691072E-03
(PID.TID 0000.0001) %MON advcfl_vvel_max              =   6.4581965116847E-03
(PID.TID 0000.0001) %MON advcfl_wvel_max              =   7.2014632649467E-03
(PID.TID 0000.0001) %MON advcfl_W_hf_max              =   7.2014632649467E-03
(PID.TID 0000.0001) %MON pe_b_mean                    =  -3.3134825291376E-07
(PID.TID 0000.0001) %MON ke_max                       =   7.8660679501531E-04
(PID.TID 0000.0001) %MON ke_mean                      =   4.5064224649388E-06
(PID.TID 0000.0001) %MON ke_vol                       =   2.9239970672188E+14
(PID.TID 0000.0001) %MON vort_r_min                   =  -2.3607308034117E-06
(PID.TID 0000.0001) %MON vort_r_max                   =   4.3418837371197E-06
(PID.TID 0000.0001) %MON vort_a_mean                  =  -1.4007161342167E-04
(PID.TID 0000.0001) %MON vort_a_sd                    =   1.7878691122099E-06
(PID.TID 0000.0001) %MON vort_p_mean                  =  -1.5023175144695E-04
(PID.TID 0000.0001) %MON vort_p_sd                    =   7.5270558597890E-05
(PID.TID 0000.0001) %MON surfExpan_theta_mean         =   1.1668770776097E-11
(PID.TID 0000.0001) %MON surfExpan_salt_mean          =   1.6189062767032E-09
(PID.TID 0000.0001) // =======================================================
(PID.TID 0000.0001) // End MONITOR dynamic field statistics
(PID.TID 0000.0001) // =======================================================
 cg2d: Sum(rhs),rhsMax =   7.19252348652111E-13  5.84695845115815E-02
(PID.TID 0000.0001)      cg2d_init_res =   4.20480983909575E-02
(PID.TID 0000.0001)      cg2d_iters(min,last) =      -1     199
(PID.TID 0000.0001)      cg2d_last_res =   8.10493237978796E-14
(PID.TID 0000.0001) // =======================================================
(PID.TID 0000.0001) // Begin MONITOR dynamic field statistics
(PID.TID 0000.0001) // =======================================================
(PID.TID 0000.0001) %MON time_tsnumber                =                  8643
(PID.TID 0000.0001) %MON time_secondsf                =   1.5557400000000E+07
(PID.TID 0000.0001) %MON dynstat_eta_max              =   1.1515725466912E-02
(PID.TID 0000.0001) %MON dynstat_eta_min              =  -3.6552343402265E-03
(PID.TID 0000.0001) %MON dynstat_eta_mean             =  -2.7983451897514E-16
(PID.TID 0000.0001) %MON dynstat_eta_sd               =   1.0180770521046E-03
(PID.TID 0000.0001) %MON dynstat_eta_del2             =   8.2846984710419E-06
(PID.TID 0000.0001) %MON dynstat_uvel_max             =   6.9300527662668E-03
(PID.TID 0000.0001) %MON dynstat_uvel_min             =  -1.2558285516922E-02
(PID.TID 0000.0001) %MON dynstat_uvel_mean            =   2.7278626135482E-05
(PID.TID 0000.0001) %MON dynstat_uvel_sd              =   1.1848855178465E-03
(PID.TID 0000.0001) %MON dynstat_uvel_del2            =   2.0063714960344E-06
(PID.TID 0000.0001) %MON dynstat_vvel_max             =   4.0227636715500E-02
(PID.TID 0000.0001) %MON dynstat_vvel_min             =  -1.3254990254645E-02
(PID.TID 0000.0001) %MON dynstat_vvel_mean            =   1.1333828126690E-05
(PID.TID 0000.0001) %MON dynstat_vvel_sd              =   2.7899826773574E-03
(PID.TID 0000.0001) %MON dynstat_vvel_del2            =   4.9135982093955E-06
(PID.TID 0000.0001) %MON dynstat_wvel_max             =   4.6978688065703E-05
(PID.TID 0000.0001) %MON dynstat_wvel_min             =  -1.2010270769127E-04
(PID.TID 0000.0001) %MON dynstat_wvel_mean            =   8.0351452040873E-09
(PID.TID 0000.0001) %MON dynstat_wvel_sd              =   4.0039247633040E-06
(PID.TID 0000.0001) %MON dynstat_wvel_del2            =   1.7346874060942E-08
(PID.TID 0000.0001) %MON dynstat_theta_max            =  -1.8848535053330E+00
(PID.TID 0000.0001) %MON dynstat_theta_min            =  -2.0018432364571E+00
(PID.TID 0000.0001) %MON dynstat_theta_mean           =  -1.9143101100644E+00
(PID.TID 0000.0001) %MON dynstat_theta_sd             =   3.1133077697378E-02
(PID.TID 0000.0001) %MON dynstat_theta_del2           =   6.2365723495583E-06
(PID.TID 0000.0001) %MON dynstat_salt_max             =   3.4406074126183E+01
(PID.TID 0000.0001) %MON dynstat_salt_min             =   3.4119635366144E+01
(PID.TID 0000.0001) %MON dynstat_salt_mean            =   3.4391236319348E+01
(PID.TID 0000.0001) %MON dynstat_salt_sd              =   2.3917233944728E-02
(PID.TID 0000.0001) %MON dynstat_salt_del2            =   3.3340459749564E-06
(PID.TID 0000.0001) %MON advcfl_uvel_max              =   3.7366431135626E-03
(PID.TID 0000.0001) %MON advcfl_vvel_max              =   6.5129872000794E-03
(PID.TID 0000.0001) %MON advcfl_wvel_max              =   7.2061624614764E-03
(PID.TID 0000.0001) %MON advcfl_W_hf_max              =   7.2061624614764E-03
(PID.TID 0000.0001) %MON pe_b_mean                    =  -2.8591155920079E-07
(PID.TID 0000.0001) %MON ke_max                       =   7.9869864576905E-04
(PID.TID 0000.0001) %MON ke_mean                      =   4.5343164349815E-06
(PID.TID 0000.0001) %MON ke_vol                       =   2.9239970672188E+14
(PID.TID 0000.0001) %MON vort_r_min                   =  -2.3686839589648E-06
(PID.TID 0000.0001) %MON vort_r_max                   =   4.3806760422155E-06
(PID.TID 0000.0001) %MON vort_a_mean                  =  -1.4007161343369E-04
(PID.TID 0000.0001) %MON vort_a_sd                    =   1.7879377903071E-06
(PID.TID 0000.0001) %MON vort_p_mean                  =  -1.5023175150267E-04
(PID.TID 0000.0001) %MON vort_p_sd                    =   7.5270174471998E-05
(PID.TID 0000.0001) %MON surfExpan_theta_mean         =   1.7588722647641E-11
(PID.TID 0000.0001) %MON surfExpan_salt_mean          =   1.6721990962801E-09
(PID.TID 0000.0001) // =======================================================
(PID.TID 0000.0001) // End MONITOR dynamic field statistics
(PID.TID 0000.0001) // =======================================================
 cg2d: Sum(rhs),rhsMax =   7.16812514293258E-13  5.84526906482458E-02
(PID.TID 0000.0001)      cg2d_init_res =   3.95888393174061E-02
(PID.TID 0000.0001)      cg2d_iters(min,last) =      -1     198
(PID.TID 0000.0001)      cg2d_last_res =   8.23592705984745E-14
(PID.TID 0000.0001) // =======================================================
(PID.TID 0000.0001) // Begin MONITOR dynamic field statistics
(PID.TID 0000.0001) // =======================================================
(PID.TID 0000.0001) %MON time_tsnumber                =                  8644
(PID.TID 0000.0001) %MON time_secondsf                =   1.5559200000000E+07
(PID.TID 0000.0001) %MON dynstat_eta_max              =   1.1484365635410E-02
(PID.TID 0000.0001) %MON dynstat_eta_min              =  -3.6775585551883E-03
(PID.TID 0000.0001) %MON dynstat_eta_mean             =  -2.7974609536904E-16
(PID.TID 0000.0001) %MON dynstat_eta_sd               =   1.0148395206828E-03
(PID.TID 0000.0001) %MON dynstat_eta_del2             =   8.2853320831427E-06
(PID.TID 0000.0001) %MON dynstat_uvel_max             =   6.9285060590554E-03
(PID.TID 0000.0001) %MON dynstat_uvel_min             =  -1.2735376568044E-02
(PID.TID 0000.0001) %MON dynstat_uvel_mean            =   2.8792224137413E-05
(PID.TID 0000.0001) %MON dynstat_uvel_sd              =   1.1960625948244E-03
(PID.TID 0000.0001) %MON dynstat_uvel_del2            =   2.0683996347371E-06
(PID.TID 0000.0001) %MON dynstat_vvel_max             =   4.0558582926729E-02
(PID.TID 0000.0001) %MON dynstat_vvel_min             =  -1.3264001995364E-02
(PID.TID 0000.0001) %MON dynstat_vvel_mean            =   1.3423184441610E-05
(PID.TID 0000.0001) %MON dynstat_vvel_sd              =   2.7956706963305E-03
(PID.TID 0000.0001) %MON dynstat_vvel_del2            =   4.9136939331195E-06
(PID.TID 0000.0001) %MON dynstat_wvel_max             =   4.7401868451090E-05
(PID.TID 0000.0001) %MON dynstat_wvel_min             =  -1.2024872089421E-04
(PID.TID 0000.0001) %MON dynstat_wvel_mean            =   7.6246437853817E-09
(PID.TID 0000.0001) %MON dynstat_wvel_sd              =   4.0048396351104E-06
(PID.TID 0000.0001) %MON dynstat_wvel_del2            =   1.7329136724460E-08
(PID.TID 0000.0001) %MON dynstat_theta_max            =  -1.8867202566969E+00
(PID.TID 0000.0001) %MON dynstat_theta_min            =  -2.0023615791813E+00
(PID.TID 0000.0001) %MON dynstat_theta_mean           =  -1.9143156298740E+00
(PID.TID 0000.0001) %MON dynstat_theta_sd             =   3.1147206472422E-02
(PID.TID 0000.0001) %MON dynstat_theta_del2           =   6.2101466619327E-06
(PID.TID 0000.0001) %MON dynstat_salt_max             =   3.4405345019994E+01
(PID.TID 0000.0001) %MON dynstat_salt_min             =   3.4119636222601E+01
(PID.TID 0000.0001) %MON dynstat_salt_mean            =   3.4391234322475E+01
(PID.TID 0000.0001) %MON dynstat_salt_sd              =   2.3924941131182E-02
(PID.TID 0000.0001) %MON dynstat_salt_del2            =   3.3347097691125E-06
(PID.TID 0000.0001) %MON advcfl_uvel_max              =   3.7893355018473E-03
(PID.TID 0000.0001) %MON advcfl_vvel_max              =   6.5665684843317E-03
(PID.TID 0000.0001) %MON advcfl_wvel_max              =   7.2149232536526E-03
(PID.TID 0000.0001) %MON advcfl_W_hf_max              =   7.2149232536526E-03
(PID.TID 0000.0001) %MON pe_b_mean                    =  -2.3197251204605E-07
(PID.TID 0000.0001) %MON ke_max                       =   8.1154743806466E-04
(PID.TID 0000.0001) %MON ke_mean                      =   4.5631168934740E-06
(PID.TID 0000.0001) %MON ke_vol                       =   2.9239970672188E+14
(PID.TID 0000.0001) %MON vort_r_min                   =  -2.3719468558305E-06
(PID.TID 0000.0001) %MON vort_r_max                   =   4.4116105541234E-06
(PID.TID 0000.0001) %MON vort_a_mean                  =  -1.4007161358947E-04
(PID.TID 0000.0001) %MON vort_a_sd                    =   1.7879710980920E-06
(PID.TID 0000.0001) %MON vort_p_mean                  =  -1.5023175165400E-04
(PID.TID 0000.0001) %MON vort_p_sd                    =   7.5269980169706E-05
(PID.TID 0000.0001) %MON surfExpan_theta_mean         =   2.0935788078897E-11
(PID.TID 0000.0001) %MON surfExpan_salt_mean          =   1.5271183148368E-09
(PID.TID 0000.0001) // =======================================================
(PID.TID 0000.0001) // End MONITOR dynamic field statistics
(PID.TID 0000.0001) // =======================================================
 cg2d: Sum(rhs),rhsMax =   7.16838372515072E-13  5.84006602841227E-02
(PID.TID 0000.0001)      cg2d_init_res =   3.92862121648552E-02
(PID.TID 0000.0001)      cg2d_iters(min,last) =      -1     196
(PID.TID 0000.0001)      cg2d_last_res =   8.46761305777237E-14
(PID.TID 0000.0001) // =======================================================
(PID.TID 0000.0001) // Begin MONITOR dynamic field statistics
(PID.TID 0000.0001) // =======================================================
(PID.TID 0000.0001) %MON time_tsnumber                =                  8645
(PID.TID 0000.0001) %MON time_secondsf                =   1.5561000000000E+07
(PID.TID 0000.0001) %MON dynstat_eta_max              =   1.1382916479399E-02
(PID.TID 0000.0001) %MON dynstat_eta_min              =  -3.6398544773213E-03
(PID.TID 0000.0001) %MON dynstat_eta_mean             =  -2.7984286223732E-16
(PID.TID 0000.0001) %MON dynstat_eta_sd               =   1.0046759933910E-03
(PID.TID 0000.0001) %MON dynstat_eta_del2             =   8.2871779833054E-06
(PID.TID 0000.0001) %MON dynstat_uvel_max             =   6.9343727876861E-03
(PID.TID 0000.0001) %MON dynstat_uvel_min             =  -1.2878964808248E-02
(PID.TID 0000.0001) %MON dynstat_uvel_mean            =   2.9626712363337E-05
(PID.TID 0000.0001) %MON dynstat_uvel_sd              =   1.2084442499815E-03
(PID.TID 0000.0001) %MON dynstat_uvel_del2            =   2.0579019929904E-06
(PID.TID 0000.0001) %MON dynstat_vvel_max             =   4.0880104193844E-02
(PID.TID 0000.0001) %MON dynstat_vvel_min             =  -1.3279377915088E-02
(PID.TID 0000.0001) %MON dynstat_vvel_mean            =   1.4142896845962E-05
(PID.TID 0000.0001) %MON dynstat_vvel_sd              =   2.8005747919469E-03
(PID.TID 0000.0001) %MON dynstat_vvel_del2            =   4.9145809790818E-06
(PID.TID 0000.0001) %MON dynstat_wvel_max             =   4.7858219912994E-05
(PID.TID 0000.0001) %MON dynstat_wvel_min             =  -1.2044417035206E-04
(PID.TID 0000.0001) %MON dynstat_wvel_mean            =   6.4259951060627E-09
(PID.TID 0000.0001) %MON dynstat_wvel_sd              =   4.0300372294284E-06
(PID.TID 0000.0001) %MON dynstat_wvel_del2            =   1.7479555737348E-08
(PID.TID 0000.0001) %MON dynstat_theta_max            =  -1.8880327129934E+00
(PID.TID 0000.0001) %MON dynstat_theta_min            =  -2.0028792768661E+00
(PID.TID 0000.0001) %MON dynstat_theta_mean           =  -1.9143211440932E+00
(PID.TID 0000.0001) %MON dynstat_theta_sd             =   3.1161354648281E-02
(PID.TID 0000.0001) %MON dynstat_theta_del2           =   6.1842965927639E-06
(PID.TID 0000.0001) %MON dynstat_salt_max             =   3.4404835984567E+01
(PID.TID 0000.0001) %MON dynstat_salt_min             =   3.4119637932067E+01
(PID.TID 0000.0001) %MON dynstat_salt_mean            =   3.4391232328079E+01
(PID.TID 0000.0001) %MON dynstat_salt_sd              =   2.3932639420856E-02
(PID.TID 0000.0001) %MON dynstat_salt_del2            =   3.3355104683872E-06
(PID.TID 0000.0001) %MON advcfl_uvel_max              =   3.8320593281392E-03
(PID.TID 0000.0001) %MON advcfl_vvel_max              =   6.6186238390143E-03
(PID.TID 0000.0001) %MON advcfl_wvel_max              =   7.2266502211237E-03
(PID.TID 0000.0001) %MON advcfl_W_hf_max              =   7.2266502211237E-03
(PID.TID 0000.0001) %MON pe_b_mean                    =  -1.7981224405779E-07
(PID.TID 0000.0001) %MON ke_max                       =   8.2450710036125E-04
(PID.TID 0000.0001) %MON ke_mean                      =   4.5912935807943E-06
(PID.TID 0000.0001) %MON ke_vol                       =   2.9239970672188E+14
(PID.TID 0000.0001) %MON vort_r_min                   =  -2.3692662261798E-06
(PID.TID 0000.0001) %MON vort_r_max                   =   4.4341944626517E-06
(PID.TID 0000.0001) %MON vort_a_mean                  =  -1.4007161401730E-04
(PID.TID 0000.0001) %MON vort_a_sd                    =   1.7879710966643E-06
(PID.TID 0000.0001) %MON vort_p_mean                  =  -1.5023175203589E-04
(PID.TID 0000.0001) %MON vort_p_sd                    =   7.5269973232412E-05
(PID.TID 0000.0001) %MON surfExpan_theta_mean         =   2.1152073289525E-11
(PID.TID 0000.0001) %MON surfExpan_salt_mean          =   1.2512251481380E-09
(PID.TID 0000.0001) // =======================================================
(PID.TID 0000.0001) // End MONITOR dynamic field statistics
(PID.TID 0000.0001) // =======================================================
 cg2d: Sum(rhs),rhsMax =   7.19349601586983E-13  5.83965554930884E-02
(PID.TID 0000.0001)      cg2d_init_res =   3.85227377031054E-02
(PID.TID 0000.0001)      cg2d_iters(min,last) =      -1     192
(PID.TID 0000.0001)      cg2d_last_res =   9.99347898029692E-14
(PID.TID 0000.0001) // =======================================================
(PID.TID 0000.0001) // Begin MONITOR dynamic field statistics
(PID.TID 0000.0001) // =======================================================
(PID.TID 0000.0001) %MON time_tsnumber                =                  8646
(PID.TID 0000.0001) %MON time_secondsf                =   1.5562800000000E+07
(PID.TID 0000.0001) %MON dynstat_eta_max              =   1.1267134327765E-02
(PID.TID 0000.0001) %MON dynstat_eta_min              =  -3.5757495170092E-03
(PID.TID 0000.0001) %MON dynstat_eta_mean             =  -2.8005028754700E-16
(PID.TID 0000.0001) %MON dynstat_eta_sd               =   9.9350013430999E-04
(PID.TID 0000.0001) %MON dynstat_eta_del2             =   8.2893267513122E-06
(PID.TID 0000.0001) %MON dynstat_uvel_max             =   6.9469821548332E-03
(PID.TID 0000.0001) %MON dynstat_uvel_min             =  -1.2970440470266E-02
(PID.TID 0000.0001) %MON dynstat_uvel_mean            =   2.9909910821881E-05
(PID.TID 0000.0001) %MON dynstat_uvel_sd              =   1.2212423479946E-03
(PID.TID 0000.0001) %MON dynstat_uvel_del2            =   1.9871391340186E-06
(PID.TID 0000.0001) %MON dynstat_vvel_max             =   4.1170626968533E-02
(PID.TID 0000.0001) %MON dynstat_vvel_min             =  -1.3296295712780E-02
(PID.TID 0000.0001) %MON dynstat_vvel_mean            =   1.3201708159818E-05
(PID.TID 0000.0001) %MON dynstat_vvel_sd              =   2.8046292092998E-03
(PID.TID 0000.0001) %MON dynstat_vvel_del2            =   4.9163068517456E-06
(PID.TID 0000.0001) %MON dynstat_wvel_max             =   4.8326955887690E-05
(PID.TID 0000.0001) %MON dynstat_wvel_min             =  -1.2066799967726E-04
(PID.TID 0000.0001) %MON dynstat_wvel_mean            =   4.8248092831703E-09
(PID.TID 0000.0001) %MON dynstat_wvel_sd              =   4.0757360181392E-06
(PID.TID 0000.0001) %MON dynstat_wvel_del2            =   1.7769908813764E-08
(PID.TID 0000.0001) %MON dynstat_theta_max            =  -1.8889940988205E+00
(PID.TID 0000.0001) %MON dynstat_theta_min            =  -2.0033963288792E+00
(PID.TID 0000.0001) %MON dynstat_theta_mean           =  -1.9143266527283E+00
(PID.TID 0000.0001) %MON dynstat_theta_sd             =   3.1175519835579E-02
(PID.TID 0000.0001) %MON dynstat_theta_del2           =   6.1589567992993E-06
(PID.TID 0000.0001) %MON dynstat_salt_max             =   3.4404466085926E+01
(PID.TID 0000.0001) %MON dynstat_salt_min             =   3.4119639550162E+01
(PID.TID 0000.0001) %MON dynstat_salt_mean            =   3.4391230335826E+01
(PID.TID 0000.0001) %MON dynstat_salt_sd              =   2.3940329598329E-02
(PID.TID 0000.0001) %MON dynstat_salt_del2            =   3.3364858961718E-06
(PID.TID 0000.0001) %MON advcfl_uvel_max              =   3.8592773669453E-03
(PID.TID 0000.0001) %MON advcfl_vvel_max              =   6.6656604354285E-03
(PID.TID 0000.0001) %MON advcfl_wvel_max              =   7.2400799806353E-03
(PID.TID 0000.0001) %MON advcfl_W_hf_max              =   7.2400799806353E-03
(PID.TID 0000.0001) %MON pe_b_mean                    =  -1.3637071896112E-07
(PID.TID 0000.0001) %MON ke_max                       =   8.3698051832398E-04
(PID.TID 0000.0001) %MON ke_mean                      =   4.6177488180236E-06
(PID.TID 0000.0001) %MON ke_vol                       =   2.9239970672188E+14
(PID.TID 0000.0001) %MON vort_r_min                   =  -2.3630502904871E-06
(PID.TID 0000.0001) %MON vort_r_max                   =   4.4484802944004E-06
(PID.TID 0000.0001) %MON vort_a_mean                  =  -1.4007161475626E-04
(PID.TID 0000.0001) %MON vort_a_sd                    =   1.7879476878956E-06
(PID.TID 0000.0001) %MON vort_p_mean                  =  -1.5023175275158E-04
(PID.TID 0000.0001) %MON vort_p_sd                    =   7.5270129734014E-05
(PID.TID 0000.0001) %MON surfExpan_theta_mean         =   1.8467070948761E-11
(PID.TID 0000.0001) %MON surfExpan_salt_mean          =   9.1743802889005E-10
(PID.TID 0000.0001) // =======================================================
(PID.TID 0000.0001) // End MONITOR dynamic field statistics
(PID.TID 0000.0001) // =======================================================
 cg2d: Sum(rhs),rhsMax =   7.16223101334713E-13  5.84579952489789E-02
(PID.TID 0000.0001)      cg2d_init_res =   3.77188136967805E-02
(PID.TID 0000.0001)      cg2d_iters(min,last) =      -1     194
(PID.TID 0000.0001)      cg2d_last_res =   9.78107280795231E-14
(PID.TID 0000.0001) // =======================================================
(PID.TID 0000.0001) // Begin MONITOR dynamic field statistics
(PID.TID 0000.0001) // =======================================================
(PID.TID 0000.0001) %MON time_tsnumber                =                  8647
(PID.TID 0000.0001) %MON time_secondsf                =   1.5564600000000E+07
(PID.TID 0000.0001) %MON dynstat_eta_max              =   1.1172091062681E-02
(PID.TID 0000.0001) %MON dynstat_eta_min              =  -3.5028652202084E-03
(PID.TID 0000.0001) %MON dynstat_eta_mean             =  -2.8018531031034E-16
(PID.TID 0000.0001) %MON dynstat_eta_sd               =   9.8399662675852E-04
(PID.TID 0000.0001) %MON dynstat_eta_del2             =   8.2913657699437E-06
(PID.TID 0000.0001) %MON dynstat_uvel_max             =   6.9653680177541E-03
(PID.TID 0000.0001) %MON dynstat_uvel_min             =  -1.3006422036660E-02
(PID.TID 0000.0001) %MON dynstat_uvel_mean            =   3.0007683933919E-05
(PID.TID 0000.0001) %MON dynstat_uvel_sd              =   1.2338731579247E-03
(PID.TID 0000.0001) %MON dynstat_uvel_del2            =   1.8778137834378E-06
(PID.TID 0000.0001) %MON dynstat_vvel_max             =   4.1413941159938E-02
(PID.TID 0000.0001) %MON dynstat_vvel_min             =  -1.3310878640806E-02
(PID.TID 0000.0001) %MON dynstat_vvel_mean            =   1.0686474654408E-05
(PID.TID 0000.0001) %MON dynstat_vvel_sd              =   2.8078249743713E-03
(PID.TID 0000.0001) %MON dynstat_vvel_del2            =   4.9189092921167E-06
(PID.TID 0000.0001) %MON dynstat_wvel_max             =   4.8769514317302E-05
(PID.TID 0000.0001) %MON dynstat_wvel_min             =  -1.2090139127899E-04
(PID.TID 0000.0001) %MON dynstat_wvel_mean            =   3.1324037602964E-09
(PID.TID 0000.0001) %MON dynstat_wvel_sd              =   4.1388849714172E-06
(PID.TID 0000.0001) %MON dynstat_wvel_del2            =   1.8170014794466E-08
(PID.TID 0000.0001) %MON dynstat_theta_max            =  -1.8897089255343E+00
(PID.TID 0000.0001) %MON dynstat_theta_min            =  -2.0039127391649E+00
(PID.TID 0000.0001) %MON dynstat_theta_mean           =  -1.9143321557901E+00
(PID.TID 0000.0001) %MON dynstat_theta_sd             =   3.1189700734952E-02
(PID.TID 0000.0001) %MON dynstat_theta_del2           =   6.1340816194680E-06
(PID.TID 0000.0001) %MON dynstat_salt_max             =   3.4404193619636E+01
(PID.TID 0000.0001) %MON dynstat_salt_min             =   3.4119640278917E+01
(PID.TID 0000.0001) %MON dynstat_salt_mean            =   3.4391228345464E+01
(PID.TID 0000.0001) %MON dynstat_salt_sd              =   2.3948012316827E-02
(PID.TID 0000.0001) %MON dynstat_salt_del2            =   3.3376612813237E-06
(PID.TID 0000.0001) %MON advcfl_uvel_max              =   3.8699834678777E-03
(PID.TID 0000.0001) %MON advcfl_vvel_max              =   6.7050538063448E-03
(PID.TID 0000.0001) %MON advcfl_wvel_max              =   7.2540834767396E-03
(PID.TID 0000.0001) %MON advcfl_W_hf_max              =   7.2540834767396E-03
(PID.TID 0000.0001) %MON pe_b_mean                    =  -1.0511751091377E-07
(PID.TID 0000.0001) %MON ke_max                       =   8.4836501300503E-04
(PID.TID 0000.0001) %MON ke_mean                      =   4.6417732121185E-06
(PID.TID 0000.0001) %MON ke_vol                       =   2.9239970672188E+14
(PID.TID 0000.0001) %MON vort_r_min                   =  -2.3619081501220E-06
(PID.TID 0000.0001) %MON vort_r_max                   =   4.4547015218135E-06
(PID.TID 0000.0001) %MON vort_a_mean                  =  -1.4007161568931E-04
(PID.TID 0000.0001) %MON vort_a_sd                    =   1.7879141349969E-06
(PID.TID 0000.0001) %MON vort_p_mean                  =  -1.5023175371780E-04
(PID.TID 0000.0001) %MON vort_p_sd                    =   7.5270431245639E-05
(PID.TID 0000.0001) %MON surfExpan_theta_mean         =   1.3606378317138E-11
(PID.TID 0000.0001) %MON surfExpan_salt_mean          =   5.7996395942437E-10
(PID.TID 0000.0001) // =======================================================
(PID.TID 0000.0001) // End MONITOR dynamic field statistics
(PID.TID 0000.0001) // =======================================================
 cg2d: Sum(rhs),rhsMax =   7.17319412690213E-13  5.85308740181495E-02
(PID.TID 0000.0001)      cg2d_init_res =   3.71274871475231E-02
(PID.TID 0000.0001)      cg2d_iters(min,last) =      -1     195
(PID.TID 0000.0001)      cg2d_last_res =   8.83167239861957E-14
(PID.TID 0000.0001) // =======================================================
(PID.TID 0000.0001) // Begin MONITOR dynamic field statistics
(PID.TID 0000.0001) // =======================================================
(PID.TID 0000.0001) %MON time_tsnumber                =                  8648
(PID.TID 0000.0001) %MON time_secondsf                =   1.5566400000000E+07
(PID.TID 0000.0001) %MON dynstat_eta_max              =   1.1101277407784E-02
(PID.TID 0000.0001) %MON dynstat_eta_min              =  -3.4231840653478E-03
(PID.TID 0000.0001) %MON dynstat_eta_mean             =  -2.8013238508043E-16
(PID.TID 0000.0001) %MON dynstat_eta_sd               =   9.7645610651754E-04
(PID.TID 0000.0001) %MON dynstat_eta_del2             =   8.2930676526770E-06
(PID.TID 0000.0001) %MON dynstat_uvel_max             =   6.9882690873803E-03
(PID.TID 0000.0001) %MON dynstat_uvel_min             =  -1.2987583522920E-02
(PID.TID 0000.0001) %MON dynstat_uvel_mean            =   3.0158920732696E-05
(PID.TID 0000.0001) %MON dynstat_uvel_sd              =   1.2459311803490E-03
(PID.TID 0000.0001) %MON dynstat_uvel_del2            =   1.7585409135201E-06
(PID.TID 0000.0001) %MON dynstat_vvel_max             =   4.1599971638790E-02
(PID.TID 0000.0001) %MON dynstat_vvel_min             =  -1.3321168984763E-02
(PID.TID 0000.0001) %MON dynstat_vvel_mean            =   7.0496402735001E-06
(PID.TID 0000.0001) %MON dynstat_vvel_sd              =   2.8101639788248E-03
(PID.TID 0000.0001) %MON dynstat_vvel_del2            =   4.9223922586971E-06
(PID.TID 0000.0001) %MON dynstat_wvel_max             =   4.9150900008594E-05
(PID.TID 0000.0001) %MON dynstat_wvel_min             =  -1.2112946298006E-04
(PID.TID 0000.0001) %MON dynstat_wvel_mean            =   1.5521875792613E-09
(PID.TID 0000.0001) %MON dynstat_wvel_sd              =   4.2164110947231E-06
(PID.TID 0000.0001) %MON dynstat_wvel_del2            =   1.8646683983783E-08
(PID.TID 0000.0001) %MON dynstat_theta_max            =  -1.8902435266496E+00
(PID.TID 0000.0001) %MON dynstat_theta_min            =  -2.0044285142231E+00
(PID.TID 0000.0001) %MON dynstat_theta_mean           =  -1.9143376532905E+00
(PID.TID 0000.0001) %MON dynstat_theta_sd             =   3.1203896561950E-02
(PID.TID 0000.0001) %MON dynstat_theta_del2           =   6.1096404067869E-06
(PID.TID 0000.0001) %MON dynstat_salt_max             =   3.4403992064222E+01
(PID.TID 0000.0001) %MON dynstat_salt_min             =   3.4119639554384E+01
(PID.TID 0000.0001) %MON dynstat_salt_mean            =   3.4391226356840E+01
(PID.TID 0000.0001) %MON dynstat_salt_sd              =   2.3955687937225E-02
(PID.TID 0000.0001) %MON dynstat_salt_del2            =   3.3390500658335E-06
(PID.TID 0000.0001) %MON advcfl_uvel_max              =   3.8643781802339E-03
(PID.TID 0000.0001) %MON advcfl_vvel_max              =   6.7351727550705E-03
(PID.TID 0000.0001) %MON advcfl_wvel_max              =   7.2677677788034E-03
(PID.TID 0000.0001) %MON advcfl_W_hf_max              =   7.2677677788034E-03
(PID.TID 0000.0001) %MON pe_b_mean                    =  -8.6909464850541E-08
(PID.TID 0000.0001) %MON ke_max                       =   8.5808681120737E-04
(PID.TID 0000.0001) %MON ke_mean                      =   4.6628844419618E-06
(PID.TID 0000.0001) %MON ke_vol                       =   2.9239970672188E+14
(PID.TID 0000.0001) %MON vort_r_min                   =  -2.3604091234351E-06
(PID.TID 0000.0001) %MON vort_r_max                   =   4.4532809008371E-06
(PID.TID 0000.0001) %MON vort_a_mean                  =  -1.4007161656964E-04
(PID.TID 0000.0001) %MON vort_a_sd                    =   1.7878830051301E-06
(PID.TID 0000.0001) %MON vort_p_mean                  =  -1.5023175466628E-04
(PID.TID 0000.0001) %MON vort_p_sd                    =   7.5270849545045E-05
(PID.TID 0000.0001) %MON surfExpan_theta_mean         =   7.4335839073555E-12
(PID.TID 0000.0001) %MON surfExpan_salt_mean          =   2.7179705872535E-10
(PID.TID 0000.0001) // =======================================================
(PID.TID 0000.0001) // End MONITOR dynamic field statistics
(PID.TID 0000.0001) // =======================================================
 cg2d: Sum(rhs),rhsMax =   7.13801336306208E-13  5.86156097765107E-02
(PID.TID 0000.0001)      cg2d_init_res =   3.67878482276467E-02
(PID.TID 0000.0001)      cg2d_iters(min,last) =      -1     195
(PID.TID 0000.0001)      cg2d_last_res =   8.11164243881374E-14
(PID.TID 0000.0001) // =======================================================
(PID.TID 0000.0001) // Begin MONITOR dynamic field statistics
(PID.TID 0000.0001) // =======================================================
(PID.TID 0000.0001) %MON time_tsnumber                =                  8649
(PID.TID 0000.0001) %MON time_secondsf                =   1.5568200000000E+07
(PID.TID 0000.0001) %MON dynstat_eta_max              =   1.1052608070008E-02
(PID.TID 0000.0001) %MON dynstat_eta_min              =  -3.3336862347789E-03
(PID.TID 0000.0001) %MON dynstat_eta_mean             =  -2.7999079813288E-16
(PID.TID 0000.0001) %MON dynstat_eta_sd               =   9.7017897984772E-04
(PID.TID 0000.0001) %MON dynstat_eta_del2             =   8.2943801144458E-06
(PID.TID 0000.0001) %MON dynstat_uvel_max             =   7.0141621316175E-03
(PID.TID 0000.0001) %MON dynstat_uvel_min             =  -1.2918963779316E-02
(PID.TID 0000.0001) %MON dynstat_uvel_mean            =   3.0372542866610E-05
(PID.TID 0000.0001) %MON dynstat_uvel_sd              =   1.2570726133044E-03
(PID.TID 0000.0001) %MON dynstat_uvel_del2            =   1.6603638284783E-06
(PID.TID 0000.0001) %MON dynstat_vvel_max             =   4.1722038980856E-02
(PID.TID 0000.0001) %MON dynstat_vvel_min             =  -1.3326760214322E-02
(PID.TID 0000.0001) %MON dynstat_vvel_mean            =   2.9320658152747E-06
(PID.TID 0000.0001) %MON dynstat_vvel_sd              =   2.8116690607512E-03
(PID.TID 0000.0001) %MON dynstat_vvel_del2            =   4.9266950451946E-06
(PID.TID 0000.0001) %MON dynstat_wvel_max             =   4.9448150388623E-05
(PID.TID 0000.0001) %MON dynstat_wvel_min             =  -1.2134012543002E-04
(PID.TID 0000.0001) %MON dynstat_wvel_mean            =   1.7276987171230E-10
(PID.TID 0000.0001) %MON dynstat_wvel_sd              =   4.3044329926001E-06
(PID.TID 0000.0001) %MON dynstat_wvel_del2            =   1.9163717870569E-08
(PID.TID 0000.0001) %MON dynstat_theta_max            =  -1.8906445997252E+00
(PID.TID 0000.0001) %MON dynstat_theta_min            =  -2.0049436602724E+00
(PID.TID 0000.0001) %MON dynstat_theta_mean           =  -1.9143431452402E+00
(PID.TID 0000.0001) %MON dynstat_theta_sd             =   3.1218106800639E-02
(PID.TID 0000.0001) %MON dynstat_theta_del2           =   6.0856159948708E-06
(PID.TID 0000.0001) %MON dynstat_salt_max             =   3.4403842722966E+01
(PID.TID 0000.0001) %MON dynstat_salt_min             =   3.4119636956411E+01
(PID.TID 0000.0001) %MON dynstat_salt_mean            =   3.4391224369892E+01
(PID.TID 0000.0001) %MON dynstat_salt_sd              =   2.3963356494926E-02
(PID.TID 0000.0001) %MON dynstat_salt_del2            =   3.3406535147718E-06
(PID.TID 0000.0001) %MON advcfl_uvel_max              =   3.8439607839222E-03
(PID.TID 0000.0001) %MON advcfl_vvel_max              =   6.7549358607693E-03
(PID.TID 0000.0001) %MON advcfl_wvel_max              =   7.2804075258012E-03
(PID.TID 0000.0001) %MON advcfl_W_hf_max              =   7.2804075258012E-03
(PID.TID 0000.0001) %MON pe_b_mean                    =  -8.0998231527689E-08
(PID.TID 0000.0001) %MON ke_max                       =   8.6566482318149E-04
(PID.TID 0000.0001) %MON ke_mean                      =   4.6807103423796E-06
(PID.TID 0000.0001) %MON ke_vol                       =   2.9239970672188E+14
(PID.TID 0000.0001) %MON vort_r_min                   =  -2.3588337810827E-06
(PID.TID 0000.0001) %MON vort_r_max                   =   4.4449485133679E-06
(PID.TID 0000.0001) %MON vort_a_mean                  =  -1.4007161712246E-04
(PID.TID 0000.0001) %MON vort_a_sd                    =   1.7878635613909E-06
(PID.TID 0000.0001) %MON vort_p_mean                  =  -1.5023175528115E-04
(PID.TID 0000.0001) %MON vort_p_sd                    =   7.5271346437543E-05
(PID.TID 0000.0001) %MON surfExpan_theta_mean         =   6.1453464454198E-13
(PID.TID 0000.0001) %MON surfExpan_salt_mean          =   5.5775218207124E-12
(PID.TID 0000.0001) // =======================================================
(PID.TID 0000.0001) // End MONITOR dynamic field statistics
(PID.TID 0000.0001) // =======================================================
 cg2d: Sum(rhs),rhsMax =   7.14800350257606E-13  5.87104338530888E-02
(PID.TID 0000.0001)      cg2d_init_res =   3.66496401122167E-02
(PID.TID 0000.0001)      cg2d_iters(min,last) =      -1     192
(PID.TID 0000.0001)      cg2d_last_res =   9.92324610915151E-14
(PID.TID 0000.0001) // =======================================================
(PID.TID 0000.0001) // Begin MONITOR dynamic field statistics
(PID.TID 0000.0001) // =======================================================
(PID.TID 0000.0001) %MON time_tsnumber                =                  8650
(PID.TID 0000.0001) %MON time_secondsf                =   1.5570000000000E+07
(PID.TID 0000.0001) %MON dynstat_eta_max              =   1.1021454712549E-02
(PID.TID 0000.0001) %MON dynstat_eta_min              =  -3.3332456547739E-03
(PID.TID 0000.0001) %MON dynstat_eta_mean             =  -2.7983019085590E-16
(PID.TID 0000.0001) %MON dynstat_eta_sd               =   9.6456333896101E-04
(PID.TID 0000.0001) %MON dynstat_eta_del2             =   8.2953241691211E-06
(PID.TID 0000.0001) %MON dynstat_uvel_max             =   7.0413736605825E-03
(PID.TID 0000.0001) %MON dynstat_uvel_min             =  -1.2809230687887E-02
(PID.TID 0000.0001) %MON dynstat_uvel_mean            =   3.0524641281934E-05
(PID.TID 0000.0001) %MON dynstat_uvel_sd              =   1.2668983639488E-03
(PID.TID 0000.0001) %MON dynstat_uvel_del2            =   1.6084054681626E-06
(PID.TID 0000.0001) %MON dynstat_vvel_max             =   4.1777844040808E-02
(PID.TID 0000.0001) %MON dynstat_vvel_min             =  -1.3328115016571E-02
(PID.TID 0000.0001) %MON dynstat_vvel_mean            =  -1.0402473635766E-06
(PID.TID 0000.0001) %MON dynstat_vvel_sd              =   2.8124083663640E-03
(PID.TID 0000.0001) %MON dynstat_vvel_del2            =   4.9316692628832E-06
(PID.TID 0000.0001) %MON dynstat_wvel_max             =   4.9649902497474E-05
(PID.TID 0000.0001) %MON dynstat_wvel_min             =  -1.2152300653545E-04
(PID.TID 0000.0001) %MON dynstat_wvel_mean            =  -9.9777921614841E-10
(PID.TID 0000.0001) %MON dynstat_wvel_sd              =   4.3978391432566E-06
(PID.TID 0000.0001) %MON dynstat_wvel_del2            =   1.9683330461434E-08
(PID.TID 0000.0001) %MON dynstat_theta_max            =  -1.8909463604005E+00
(PID.TID 0000.0001) %MON dynstat_theta_min            =  -2.0054581815882E+00
(PID.TID 0000.0001) %MON dynstat_theta_mean           =  -1.9143486316496E+00
(PID.TID 0000.0001) %MON dynstat_theta_sd             =   3.1232331084680E-02
(PID.TID 0000.0001) %MON dynstat_theta_del2           =   6.0620025152596E-06
(PID.TID 0000.0001) %MON dynstat_salt_max             =   3.4403731895778E+01
(PID.TID 0000.0001) %MON dynstat_salt_min             =   3.4119632182994E+01
(PID.TID 0000.0001) %MON dynstat_salt_mean            =   3.4391222384624E+01
(PID.TID 0000.0001) %MON dynstat_salt_sd              =   2.3971017805221E-02
(PID.TID 0000.0001) %MON dynstat_salt_del2            =   3.3424632722874E-06
(PID.TID 0000.0001) %MON advcfl_uvel_max              =   3.8113103556558E-03
(PID.TID 0000.0001) %MON advcfl_vvel_max              =   6.7639708842219E-03
(PID.TID 0000.0001) %MON advcfl_wvel_max              =   7.2913803921271E-03
(PID.TID 0000.0001) %MON advcfl_W_hf_max              =   7.2913803921271E-03
(PID.TID 0000.0001) %MON pe_b_mean                    =  -8.5822351316688E-08
(PID.TID 0000.0001) %MON ke_max                       =   8.7076532894383E-04
(PID.TID 0000.0001) %MON ke_mean                      =   4.6949125697136E-06
(PID.TID 0000.0001) %MON ke_vol                       =   2.9239970672188E+14
(PID.TID 0000.0001) %MON vort_r_min                   =  -2.3574925047683E-06
(PID.TID 0000.0001) %MON vort_r_max                   =   4.4308028445088E-06
(PID.TID 0000.0001) %MON vort_a_mean                  =  -1.4007161715840E-04
(PID.TID 0000.0001) %MON vort_a_sd                    =   1.7878606679944E-06
(PID.TID 0000.0001) %MON vort_p_mean                  =  -1.5023175533647E-04
(PID.TID 0000.0001) %MON vort_p_sd                    =   7.5271879940002E-05
(PID.TID 0000.0001) %MON surfExpan_theta_mean         =  -6.4900816767598E-12
(PID.TID 0000.0001) %MON surfExpan_salt_mean          =  -2.1981047692415E-10
(PID.TID 0000.0001) // =======================================================
(PID.TID 0000.0001) // End MONITOR dynamic field statistics
(PID.TID 0000.0001) // =======================================================
(PID.TID 0000.0001) %CHECKPOINT      8650 ckptA
 --> objf_shelfice(bi,bj) =  0.000000000000000D+00
 --> objf_shifwflx(bi,bj) =  0.000000000000000D+00
 --> objf_test(bi,bj)   =  0.369721219277284D+06
 --> objf_tracer(bi,bj) =  0.000000000000000D+00
 --> objf_atl(bi,bj)    =  0.000000000000000D+00
  local fc =  0.369721219277284D+06
 global fc =  0.369721219277284D+06
(PID.TID 0000.0001) SOLVE_FOR_PRESSURE: putPmEinXvector =    F
 cg2d: Sum(rhs),rhsMax =   7.04913205714849E-13  5.97849185308842E-02
 cg2d: Sum(rhs),rhsMax =   7.19866603392932E-13  5.85466144270072E-02
 cg2d: Sum(rhs),rhsMax =   7.19252348652111E-13  5.84695845115815E-02
 cg2d: Sum(rhs),rhsMax =   7.16812514293258E-13  5.84526906482458E-02
 cg2d: Sum(rhs),rhsMax =   7.16838372515072E-13  5.84006602841227E-02
 cg2d: Sum(rhs),rhsMax =   7.19349601586983E-13  5.83965554930884E-02
 cg2d: Sum(rhs),rhsMax =   7.16223101334713E-13  5.84579952489789E-02
 cg2d: Sum(rhs),rhsMax =   7.17319412690213E-13  5.85308740181495E-02
 cg2d: Sum(rhs),rhsMax =   7.13801336306208E-13  5.86156097765107E-02
 cg2d: Sum(rhs),rhsMax =   7.14800350257606E-13  5.87104338530888E-02
(PID.TID 0000.0001) Did not write pickup because writePickupAtEnd = FALSE
 cg2d: Sum(rhs),rhsMax =   7.13801336306208E-13  5.86156097765107E-02
 cg2d: Sum(rhs),rhsMax =   7.14800350257606E-13  5.87104338530888E-02
(PID.TID 0000.0001) Did not write pickup because writePickupAtEnd = FALSE
 cg2d: Sum(rhs),rhsMax =   7.14800350257606E-13  5.87104338530888E-02
(PID.TID 0000.0001) Did not write pickup because writePickupAtEnd = FALSE
(PID.TID 0000.0001) // =======================================================
(PID.TID 0000.0001) // Begin MONITOR dynamic field statistics
(PID.TID 0000.0001) // =======================================================
(PID.TID 0000.0001) %MON ad_time_tsnumber             =                  8650
(PID.TID 0000.0001) %MON ad_time_secondsf             =   1.5570000000000E+07
(PID.TID 0000.0001) %MON ad_dynstat_adeta_max         =   0.0000000000000E+00
(PID.TID 0000.0001) %MON ad_dynstat_adeta_min         =   0.0000000000000E+00
(PID.TID 0000.0001) %MON ad_dynstat_adeta_mean        =   0.0000000000000E+00
(PID.TID 0000.0001) %MON ad_dynstat_adeta_sd          =   0.0000000000000E+00
(PID.TID 0000.0001) %MON ad_dynstat_adeta_del2        =   0.0000000000000E+00
(PID.TID 0000.0001) %MON ad_dynstat_aduvel_max        =   0.0000000000000E+00
(PID.TID 0000.0001) %MON ad_dynstat_aduvel_min        =   0.0000000000000E+00
(PID.TID 0000.0001) %MON ad_dynstat_aduvel_mean       =   0.0000000000000E+00
(PID.TID 0000.0001) %MON ad_dynstat_aduvel_sd         =   0.0000000000000E+00
(PID.TID 0000.0001) %MON ad_dynstat_aduvel_del2       =   0.0000000000000E+00
(PID.TID 0000.0001) %MON ad_dynstat_advvel_max        =   0.0000000000000E+00
(PID.TID 0000.0001) %MON ad_dynstat_advvel_min        =   0.0000000000000E+00
(PID.TID 0000.0001) %MON ad_dynstat_advvel_mean       =   0.0000000000000E+00
(PID.TID 0000.0001) %MON ad_dynstat_advvel_sd         =   0.0000000000000E+00
(PID.TID 0000.0001) %MON ad_dynstat_advvel_del2       =   0.0000000000000E+00
(PID.TID 0000.0001) %MON ad_dynstat_adwvel_max        =   0.0000000000000E+00
(PID.TID 0000.0001) %MON ad_dynstat_adwvel_min        =   0.0000000000000E+00
(PID.TID 0000.0001) %MON ad_dynstat_adwvel_mean       =   0.0000000000000E+00
(PID.TID 0000.0001) %MON ad_dynstat_adwvel_sd         =   0.0000000000000E+00
(PID.TID 0000.0001) %MON ad_dynstat_adwvel_del2       =   0.0000000000000E+00
(PID.TID 0000.0001) %MON ad_dynstat_adtheta_max       =  -3.7818927208010E+00
(PID.TID 0000.0001) %MON ad_dynstat_adtheta_min       =  -4.0109163631764E+00
(PID.TID 0000.0001) %MON ad_dynstat_adtheta_mean      =  -3.8286972632992E+00
(PID.TID 0000.0001) %MON ad_dynstat_adtheta_sd        =   6.2464662169360E-02
(PID.TID 0000.0001) %MON ad_dynstat_adtheta_del2      =   1.2124005030519E-05
(PID.TID 0000.0001) %MON ad_dynstat_adsalt_max        =   0.0000000000000E+00
(PID.TID 0000.0001) %MON ad_dynstat_adsalt_min        =   0.0000000000000E+00
(PID.TID 0000.0001) %MON ad_dynstat_adsalt_mean       =   0.0000000000000E+00
(PID.TID 0000.0001) %MON ad_dynstat_adsalt_sd         =   0.0000000000000E+00
(PID.TID 0000.0001) %MON ad_dynstat_adsalt_del2       =   0.0000000000000E+00
(PID.TID 0000.0001) %MON ad_dynstat_adsst_max         =   0.0000000000000E+00
(PID.TID 0000.0001) %MON ad_dynstat_adsst_min         =   0.0000000000000E+00
(PID.TID 0000.0001) %MON ad_dynstat_adsst_mean        =   0.0000000000000E+00
(PID.TID 0000.0001) %MON ad_dynstat_adsst_sd          =   0.0000000000000E+00
(PID.TID 0000.0001) %MON ad_dynstat_adsst_del2        =   0.0000000000000E+00
(PID.TID 0000.0001) %MON ad_dynstat_adsss_max         =   0.0000000000000E+00
(PID.TID 0000.0001) %MON ad_dynstat_adsss_min         =   0.0000000000000E+00
(PID.TID 0000.0001) %MON ad_dynstat_adsss_mean        =   0.0000000000000E+00
(PID.TID 0000.0001) %MON ad_dynstat_adsss_sd          =   0.0000000000000E+00
(PID.TID 0000.0001) %MON ad_dynstat_adsss_del2        =   0.0000000000000E+00
(PID.TID 0000.0001) %MON ad_forcing_adqnet_max        =   0.0000000000000E+00
(PID.TID 0000.0001) %MON ad_forcing_adqnet_min        =   0.0000000000000E+00
(PID.TID 0000.0001) %MON ad_forcing_adqnet_mean       =   0.0000000000000E+00
(PID.TID 0000.0001) %MON ad_forcing_adqnet_sd         =   0.0000000000000E+00
(PID.TID 0000.0001) %MON ad_forcing_adqnet_del2       =   0.0000000000000E+00
(PID.TID 0000.0001) %MON ad_forcing_adempmr_max       =   0.0000000000000E+00
(PID.TID 0000.0001) %MON ad_forcing_adempmr_min       =   0.0000000000000E+00
(PID.TID 0000.0001) %MON ad_forcing_adempmr_mean      =   0.0000000000000E+00
(PID.TID 0000.0001) %MON ad_forcing_adempmr_sd        =   0.0000000000000E+00
(PID.TID 0000.0001) %MON ad_forcing_adempmr_del2      =   0.0000000000000E+00
(PID.TID 0000.0001) %MON ad_forcing_adfu_max          =   0.0000000000000E+00
(PID.TID 0000.0001) %MON ad_forcing_adfu_min          =   0.0000000000000E+00
(PID.TID 0000.0001) %MON ad_forcing_adfu_mean         =   0.0000000000000E+00
(PID.TID 0000.0001) %MON ad_forcing_adfu_sd           =   0.0000000000000E+00
(PID.TID 0000.0001) %MON ad_forcing_adfu_del2         =   0.0000000000000E+00
(PID.TID 0000.0001) %MON ad_forcing_adfv_max          =   0.0000000000000E+00
(PID.TID 0000.0001) %MON ad_forcing_adfv_min          =   0.0000000000000E+00
(PID.TID 0000.0001) %MON ad_forcing_adfv_mean         =   0.0000000000000E+00
(PID.TID 0000.0001) %MON ad_forcing_adfv_sd           =   0.0000000000000E+00
(PID.TID 0000.0001) %MON ad_forcing_adfv_del2         =   0.0000000000000E+00
(PID.TID 0000.0001) %MON ad_advcfl_aduvel_max         =   0.0000000000000E+00
(PID.TID 0000.0001) %MON ad_advcfl_advvel_max         =   0.0000000000000E+00
(PID.TID 0000.0001) %MON ad_advcfl_adwvel_max         =   0.0000000000000E+00
(PID.TID 0000.0001) %MON ad_advcfl_adW_hf_max         =   0.0000000000000E+00
(PID.TID 0000.0001) // =======================================================
(PID.TID 0000.0001) // End MONITOR dynamic field statistics
(PID.TID 0000.0001) // =======================================================
 cg2d: Sum(rhs),rhsMax =  -1.35030875370035E-14  2.27654483338355E-05
 cg2d: Sum(rhs),rhsMax =   7.13801336306208E-13  5.86156097765107E-02
(PID.TID 0000.0001) // =======================================================
(PID.TID 0000.0001) // Begin MONITOR dynamic field statistics
(PID.TID 0000.0001) // =======================================================
(PID.TID 0000.0001) %MON ad_time_tsnumber             =                  8649
(PID.TID 0000.0001) %MON ad_time_secondsf             =   1.5568200000000E+07
(PID.TID 0000.0001) %MON ad_dynstat_adeta_max         =   9.7928040206048E-03
(PID.TID 0000.0001) %MON ad_dynstat_adeta_min         =  -1.3010243470033E-02
(PID.TID 0000.0001) %MON ad_dynstat_adeta_mean        =  -1.2854058807039E-07
(PID.TID 0000.0001) %MON ad_dynstat_adeta_sd          =   1.6263675099766E-03
(PID.TID 0000.0001) %MON ad_dynstat_adeta_del2        =   2.3659014313175E-05
(PID.TID 0000.0001) %MON ad_dynstat_aduvel_max        =   3.9587093766102E-04
(PID.TID 0000.0001) %MON ad_dynstat_aduvel_min        =  -6.1206361332714E-04
(PID.TID 0000.0001) %MON ad_dynstat_aduvel_mean       =  -1.0092589702392E-06
(PID.TID 0000.0001) %MON ad_dynstat_aduvel_sd         =   9.0571976782517E-06
(PID.TID 0000.0001) %MON ad_dynstat_aduvel_del2       =   3.0774944965559E-08
(PID.TID 0000.0001) %MON ad_dynstat_advvel_max        =   8.7395896860633E-04
(PID.TID 0000.0001) %MON ad_dynstat_advvel_min        =  -8.3559306309309E-04
(PID.TID 0000.0001) %MON ad_dynstat_advvel_mean       =   4.1096442738892E-04
(PID.TID 0000.0001) %MON ad_dynstat_advvel_sd         =   2.2927945832019E-04
(PID.TID 0000.0001) %MON ad_dynstat_advvel_del2       =   1.2598718188303E-07
(PID.TID 0000.0001) %MON ad_dynstat_adwvel_max        =   8.4277746167083E-04
(PID.TID 0000.0001) %MON ad_dynstat_adwvel_min        =  -2.5059115846429E-04
(PID.TID 0000.0001) %MON ad_dynstat_adwvel_mean       =  -5.3097218156875E-07
(PID.TID 0000.0001) %MON ad_dynstat_adwvel_sd         =   6.5667704763843E-06
(PID.TID 0000.0001) %MON ad_dynstat_adwvel_del2       =   3.8246775598826E-08
(PID.TID 0000.0001) %MON ad_dynstat_adtheta_max       =  -8.8769190997743E-01
(PID.TID 0000.0001) %MON ad_dynstat_adtheta_min       =  -7.0995306176584E+00
(PID.TID 0000.0001) %MON ad_dynstat_adtheta_mean      =  -3.8286259788704E+00
(PID.TID 0000.0001) %MON ad_dynstat_adtheta_sd        =   7.1787522082120E-02
(PID.TID 0000.0001) %MON ad_dynstat_adtheta_del2      =   2.8676663331135E-04
(PID.TID 0000.0001) %MON ad_dynstat_adsalt_max        =   8.0700858482277E-04
(PID.TID 0000.0001) %MON ad_dynstat_adsalt_min        =  -2.0068738438291E-04
(PID.TID 0000.0001) %MON ad_dynstat_adsalt_mean       =   2.0999804075915E-05
(PID.TID 0000.0001) %MON ad_dynstat_adsalt_sd         =   1.0004736329751E-04
(PID.TID 0000.0001) %MON ad_dynstat_adsalt_del2       =   1.7449855121692E-07
(PID.TID 0000.0001) %MON ad_dynstat_adsst_max         =   0.0000000000000E+00
(PID.TID 0000.0001) %MON ad_dynstat_adsst_min         =   0.0000000000000E+00
(PID.TID 0000.0001) %MON ad_dynstat_adsst_mean        =   0.0000000000000E+00
(PID.TID 0000.0001) %MON ad_dynstat_adsst_sd          =   0.0000000000000E+00
(PID.TID 0000.0001) %MON ad_dynstat_adsst_del2        =   0.0000000000000E+00
(PID.TID 0000.0001) %MON ad_dynstat_adsss_max         =   0.0000000000000E+00
(PID.TID 0000.0001) %MON ad_dynstat_adsss_min         =   0.0000000000000E+00
(PID.TID 0000.0001) %MON ad_dynstat_adsss_mean        =   0.0000000000000E+00
(PID.TID 0000.0001) %MON ad_dynstat_adsss_sd          =   0.0000000000000E+00
(PID.TID 0000.0001) %MON ad_dynstat_adsss_del2        =   0.0000000000000E+00
(PID.TID 0000.0001) %MON ad_forcing_adqnet_max        =   0.0000000000000E+00
(PID.TID 0000.0001) %MON ad_forcing_adqnet_min        =   0.0000000000000E+00
(PID.TID 0000.0001) %MON ad_forcing_adqnet_mean       =   0.0000000000000E+00
(PID.TID 0000.0001) %MON ad_forcing_adqnet_sd         =   0.0000000000000E+00
(PID.TID 0000.0001) %MON ad_forcing_adqnet_del2       =   0.0000000000000E+00
(PID.TID 0000.0001) %MON ad_forcing_adempmr_max       =   0.0000000000000E+00
(PID.TID 0000.0001) %MON ad_forcing_adempmr_min       =   0.0000000000000E+00
(PID.TID 0000.0001) %MON ad_forcing_adempmr_mean      =   0.0000000000000E+00
(PID.TID 0000.0001) %MON ad_forcing_adempmr_sd        =   0.0000000000000E+00
(PID.TID 0000.0001) %MON ad_forcing_adempmr_del2      =   0.0000000000000E+00
(PID.TID 0000.0001) %MON ad_forcing_adfu_max          =   0.0000000000000E+00
(PID.TID 0000.0001) %MON ad_forcing_adfu_min          =   0.0000000000000E+00
(PID.TID 0000.0001) %MON ad_forcing_adfu_mean         =   0.0000000000000E+00
(PID.TID 0000.0001) %MON ad_forcing_adfu_sd           =   0.0000000000000E+00
(PID.TID 0000.0001) %MON ad_forcing_adfu_del2         =   0.0000000000000E+00
(PID.TID 0000.0001) %MON ad_forcing_adfv_max          =   0.0000000000000E+00
(PID.TID 0000.0001) %MON ad_forcing_adfv_min          =   0.0000000000000E+00
(PID.TID 0000.0001) %MON ad_forcing_adfv_mean         =   0.0000000000000E+00
(PID.TID 0000.0001) %MON ad_forcing_adfv_sd           =   0.0000000000000E+00
(PID.TID 0000.0001) %MON ad_forcing_adfv_del2         =   0.0000000000000E+00
(PID.TID 0000.0001) %MON ad_advcfl_aduvel_max         =   1.4966964429743E-04
(PID.TID 0000.0001) %MON ad_advcfl_advvel_max         =   1.4149684248626E-04
(PID.TID 0000.0001) %MON ad_advcfl_adwvel_max         =   5.0566647700250E-02
(PID.TID 0000.0001) %MON ad_advcfl_adW_hf_max         =   4.0399190157675E-01
(PID.TID 0000.0001) // =======================================================
(PID.TID 0000.0001) // End MONITOR dynamic field statistics
(PID.TID 0000.0001) // =======================================================
 cg2d: Sum(rhs),rhsMax =   2.25514051876985E-17  4.65225203356447E-04
 cg2d: Sum(rhs),rhsMax =   7.16223101334713E-13  5.84579952489789E-02
 cg2d: Sum(rhs),rhsMax =   7.17319412690213E-13  5.85308740181495E-02
 cg2d: Sum(rhs),rhsMax =   7.17319412690213E-13  5.85308740181495E-02
(PID.TID 0000.0001) // =======================================================
(PID.TID 0000.0001) // Begin MONITOR dynamic field statistics
(PID.TID 0000.0001) // =======================================================
(PID.TID 0000.0001) %MON ad_time_tsnumber             =                  8648
(PID.TID 0000.0001) %MON ad_time_secondsf             =   1.5566400000000E+07
(PID.TID 0000.0001) %MON ad_dynstat_adeta_max         =   1.8546559733294E-02
(PID.TID 0000.0001) %MON ad_dynstat_adeta_min         =  -2.4764973381687E-02
(PID.TID 0000.0001) %MON ad_dynstat_adeta_mean        =  -9.4192949390979E-06
(PID.TID 0000.0001) %MON ad_dynstat_adeta_sd          =   3.0411895911518E-03
(PID.TID 0000.0001) %MON ad_dynstat_adeta_del2        =   4.4104533013531E-05
(PID.TID 0000.0001) %MON ad_dynstat_aduvel_max        =   4.8768262650221E-04
(PID.TID 0000.0001) %MON ad_dynstat_aduvel_min        =  -9.1245257267854E-04
(PID.TID 0000.0001) %MON ad_dynstat_aduvel_mean       =  -9.6805673334539E-05
(PID.TID 0000.0001) %MON ad_dynstat_aduvel_sd         =   4.7321405634334E-05
(PID.TID 0000.0001) %MON ad_dynstat_aduvel_del2       =   4.3226984053519E-08
(PID.TID 0000.0001) %MON ad_dynstat_advvel_max        =   1.0881693438892E-03
(PID.TID 0000.0001) %MON ad_dynstat_advvel_min        =  -1.3296270387645E-03
(PID.TID 0000.0001) %MON ad_dynstat_advvel_mean       =   4.7454707329062E-04
(PID.TID 0000.0001) %MON ad_dynstat_advvel_sd         =   3.2215989642464E-04
(PID.TID 0000.0001) %MON ad_dynstat_advvel_del2       =   1.6540217826174E-07
(PID.TID 0000.0001) %MON ad_dynstat_adwvel_max        =   8.2010482071254E-04
(PID.TID 0000.0001) %MON ad_dynstat_adwvel_min        =  -2.8680449548492E-04
(PID.TID 0000.0001) %MON ad_dynstat_adwvel_mean       =  -1.1865224550911E-06
(PID.TID 0000.0001) %MON ad_dynstat_adwvel_sd         =   8.9781450455381E-06
(PID.TID 0000.0001) %MON ad_dynstat_adwvel_del2       =   5.9152261832656E-08
(PID.TID 0000.0001) %MON ad_dynstat_adtheta_max       =  -8.8658474046349E-01
(PID.TID 0000.0001) %MON ad_dynstat_adtheta_min       =  -7.0912359316992E+00
(PID.TID 0000.0001) %MON ad_dynstat_adtheta_mean      =  -3.8283897270309E+00
(PID.TID 0000.0001) %MON ad_dynstat_adtheta_sd        =   7.1194955944082E-02
(PID.TID 0000.0001) %MON ad_dynstat_adtheta_del2      =   2.8587580439141E-04
(PID.TID 0000.0001) %MON ad_dynstat_adsalt_max        =   1.3170990181975E-03
(PID.TID 0000.0001) %MON ad_dynstat_adsalt_min        =  -3.8405836326144E-04
(PID.TID 0000.0001) %MON ad_dynstat_adsalt_mean       =   3.1830624431269E-05
(PID.TID 0000.0001) %MON ad_dynstat_adsalt_sd         =   1.6418793186245E-04
(PID.TID 0000.0001) %MON ad_dynstat_adsalt_del2       =   2.8643719148815E-07
(PID.TID 0000.0001) %MON ad_dynstat_adsst_max         =   0.0000000000000E+00
(PID.TID 0000.0001) %MON ad_dynstat_adsst_min         =   0.0000000000000E+00
(PID.TID 0000.0001) %MON ad_dynstat_adsst_mean        =   0.0000000000000E+00
(PID.TID 0000.0001) %MON ad_dynstat_adsst_sd          =   0.0000000000000E+00
(PID.TID 0000.0001) %MON ad_dynstat_adsst_del2        =   0.0000000000000E+00
(PID.TID 0000.0001) %MON ad_dynstat_adsss_max         =   0.0000000000000E+00
(PID.TID 0000.0001) %MON ad_dynstat_adsss_min         =   0.0000000000000E+00
(PID.TID 0000.0001) %MON ad_dynstat_adsss_mean        =   0.0000000000000E+00
(PID.TID 0000.0001) %MON ad_dynstat_adsss_sd          =   0.0000000000000E+00
(PID.TID 0000.0001) %MON ad_dynstat_adsss_del2        =   0.0000000000000E+00
(PID.TID 0000.0001) %MON ad_forcing_adqnet_max        =   0.0000000000000E+00
(PID.TID 0000.0001) %MON ad_forcing_adqnet_min        =   0.0000000000000E+00
(PID.TID 0000.0001) %MON ad_forcing_adqnet_mean       =   0.0000000000000E+00
(PID.TID 0000.0001) %MON ad_forcing_adqnet_sd         =   0.0000000000000E+00
(PID.TID 0000.0001) %MON ad_forcing_adqnet_del2       =   0.0000000000000E+00
(PID.TID 0000.0001) %MON ad_forcing_adempmr_max       =   0.0000000000000E+00
(PID.TID 0000.0001) %MON ad_forcing_adempmr_min       =   0.0000000000000E+00
(PID.TID 0000.0001) %MON ad_forcing_adempmr_mean      =   0.0000000000000E+00
(PID.TID 0000.0001) %MON ad_forcing_adempmr_sd        =   0.0000000000000E+00
(PID.TID 0000.0001) %MON ad_forcing_adempmr_del2      =   0.0000000000000E+00
(PID.TID 0000.0001) %MON ad_forcing_adfu_max          =   0.0000000000000E+00
(PID.TID 0000.0001) %MON ad_forcing_adfu_min          =   0.0000000000000E+00
(PID.TID 0000.0001) %MON ad_forcing_adfu_mean         =   0.0000000000000E+00
(PID.TID 0000.0001) %MON ad_forcing_adfu_sd           =   0.0000000000000E+00
(PID.TID 0000.0001) %MON ad_forcing_adfu_del2         =   0.0000000000000E+00
(PID.TID 0000.0001) %MON ad_forcing_adfv_max          =   0.0000000000000E+00
(PID.TID 0000.0001) %MON ad_forcing_adfv_min          =   0.0000000000000E+00
(PID.TID 0000.0001) %MON ad_forcing_adfv_mean         =   0.0000000000000E+00
(PID.TID 0000.0001) %MON ad_forcing_adfv_sd           =   0.0000000000000E+00
(PID.TID 0000.0001) %MON ad_forcing_adfv_del2         =   0.0000000000000E+00
(PID.TID 0000.0001) %MON ad_advcfl_aduvel_max         =   2.2312460505323E-04
(PID.TID 0000.0001) %MON ad_advcfl_advvel_max         =   2.1527100748168E-04
(PID.TID 0000.0001) %MON ad_advcfl_adwvel_max         =   4.9206289242752E-02
(PID.TID 0000.0001) %MON ad_advcfl_adW_hf_max         =   3.9311599796341E-01
(PID.TID 0000.0001) // =======================================================
(PID.TID 0000.0001) // End MONITOR dynamic field statistics
(PID.TID 0000.0001) // =======================================================
 cg2d: Sum(rhs),rhsMax =   2.86229373536173E-16  8.95997220224624E-04
 cg2d: Sum(rhs),rhsMax =   7.16223101334713E-13  5.84579952489789E-02
(PID.TID 0000.0001) // =======================================================
(PID.TID 0000.0001) // Begin MONITOR dynamic field statistics
(PID.TID 0000.0001) // =======================================================
(PID.TID 0000.0001) %MON ad_time_tsnumber             =                  8647
(PID.TID 0000.0001) %MON ad_time_secondsf             =   1.5564600000000E+07
(PID.TID 0000.0001) %MON ad_dynstat_adeta_max         =   2.5452583205610E-02
(PID.TID 0000.0001) %MON ad_dynstat_adeta_min         =  -3.5050603272790E-02
(PID.TID 0000.0001) %MON ad_dynstat_adeta_mean        =  -2.9332684420067E-05
(PID.TID 0000.0001) %MON ad_dynstat_adeta_sd          =   4.2173473193141E-03
(PID.TID 0000.0001) %MON ad_dynstat_adeta_del2        =   6.0988275085601E-05
(PID.TID 0000.0001) %MON ad_dynstat_aduvel_max        =   5.5965107181086E-04
(PID.TID 0000.0001) %MON ad_dynstat_aduvel_min        =  -1.0572583653286E-03
(PID.TID 0000.0001) %MON ad_dynstat_aduvel_mean       =  -2.3822846551923E-04
(PID.TID 0000.0001) %MON ad_dynstat_aduvel_sd         =   8.9541955202154E-05
(PID.TID 0000.0001) %MON ad_dynstat_aduvel_del2       =   5.3695968789545E-08
(PID.TID 0000.0001) %MON ad_dynstat_advvel_max        =   1.1030030547957E-03
(PID.TID 0000.0001) %MON ad_dynstat_advvel_min        =  -1.5990944924476E-03
(PID.TID 0000.0001) %MON ad_dynstat_advvel_mean       =   4.1520444661446E-04
(PID.TID 0000.0001) %MON ad_dynstat_advvel_sd         =   3.5917828525488E-04
(PID.TID 0000.0001) %MON ad_dynstat_advvel_del2       =   1.8101477231085E-07
(PID.TID 0000.0001) %MON ad_dynstat_adwvel_max        =   8.0793152814291E-04
(PID.TID 0000.0001) %MON ad_dynstat_adwvel_min        =  -3.8709992604918E-04
(PID.TID 0000.0001) %MON ad_dynstat_adwvel_mean       =  -2.4811161538274E-06
(PID.TID 0000.0001) %MON ad_dynstat_adwvel_sd         =   1.7168608096860E-05
(PID.TID 0000.0001) %MON ad_dynstat_adwvel_del2       =   1.0611141348322E-07
(PID.TID 0000.0001) %MON ad_dynstat_adtheta_max       =  -8.8509416357569E-01
(PID.TID 0000.0001) %MON ad_dynstat_adtheta_min       =  -7.0832267220396E+00
(PID.TID 0000.0001) %MON ad_dynstat_adtheta_mean      =  -3.8281533276886E+00
(PID.TID 0000.0001) %MON ad_dynstat_adtheta_sd        =   7.0595570112542E-02
(PID.TID 0000.0001) %MON ad_dynstat_adtheta_del2      =   2.8466888594917E-04
(PID.TID 0000.0001) %MON ad_dynstat_adsalt_max        =   1.8425349858575E-03
(PID.TID 0000.0001) %MON ad_dynstat_adsalt_min        =  -5.6362769153286E-04
(PID.TID 0000.0001) %MON ad_dynstat_adsalt_mean       =   4.2375406207314E-05
(PID.TID 0000.0001) %MON ad_dynstat_adsalt_sd         =   2.2904664141876E-04
(PID.TID 0000.0001) %MON ad_dynstat_adsalt_del2       =   4.0268572424196E-07
(PID.TID 0000.0001) %MON ad_dynstat_adsst_max         =   0.0000000000000E+00
(PID.TID 0000.0001) %MON ad_dynstat_adsst_min         =   0.0000000000000E+00
(PID.TID 0000.0001) %MON ad_dynstat_adsst_mean        =   0.0000000000000E+00
(PID.TID 0000.0001) %MON ad_dynstat_adsst_sd          =   0.0000000000000E+00
(PID.TID 0000.0001) %MON ad_dynstat_adsst_del2        =   0.0000000000000E+00
(PID.TID 0000.0001) %MON ad_dynstat_adsss_max         =   0.0000000000000E+00
(PID.TID 0000.0001) %MON ad_dynstat_adsss_min         =   0.0000000000000E+00
(PID.TID 0000.0001) %MON ad_dynstat_adsss_mean        =   0.0000000000000E+00
(PID.TID 0000.0001) %MON ad_dynstat_adsss_sd          =   0.0000000000000E+00
(PID.TID 0000.0001) %MON ad_dynstat_adsss_del2        =   0.0000000000000E+00
(PID.TID 0000.0001) %MON ad_forcing_adqnet_max        =   0.0000000000000E+00
(PID.TID 0000.0001) %MON ad_forcing_adqnet_min        =   0.0000000000000E+00
(PID.TID 0000.0001) %MON ad_forcing_adqnet_mean       =   0.0000000000000E+00
(PID.TID 0000.0001) %MON ad_forcing_adqnet_sd         =   0.0000000000000E+00
(PID.TID 0000.0001) %MON ad_forcing_adqnet_del2       =   0.0000000000000E+00
(PID.TID 0000.0001) %MON ad_forcing_adempmr_max       =   0.0000000000000E+00
(PID.TID 0000.0001) %MON ad_forcing_adempmr_min       =   0.0000000000000E+00
(PID.TID 0000.0001) %MON ad_forcing_adempmr_mean      =   0.0000000000000E+00
(PID.TID 0000.0001) %MON ad_forcing_adempmr_sd        =   0.0000000000000E+00
(PID.TID 0000.0001) %MON ad_forcing_adempmr_del2      =   0.0000000000000E+00
(PID.TID 0000.0001) %MON ad_forcing_adfu_max          =   0.0000000000000E+00
(PID.TID 0000.0001) %MON ad_forcing_adfu_min          =   0.0000000000000E+00
(PID.TID 0000.0001) %MON ad_forcing_adfu_mean         =   0.0000000000000E+00
(PID.TID 0000.0001) %MON ad_forcing_adfu_sd           =   0.0000000000000E+00
(PID.TID 0000.0001) %MON ad_forcing_adfu_del2         =   0.0000000000000E+00
(PID.TID 0000.0001) %MON ad_forcing_adfv_max          =   0.0000000000000E+00
(PID.TID 0000.0001) %MON ad_forcing_adfv_min          =   0.0000000000000E+00
(PID.TID 0000.0001) %MON ad_forcing_adfv_mean         =   0.0000000000000E+00
(PID.TID 0000.0001) %MON ad_forcing_adfv_sd           =   0.0000000000000E+00
(PID.TID 0000.0001) %MON ad_forcing_adfv_del2         =   0.0000000000000E+00
(PID.TID 0000.0001) %MON ad_advcfl_aduvel_max         =   2.5853437457102E-04
(PID.TID 0000.0001) %MON ad_advcfl_advvel_max         =   2.5889867790855E-04
(PID.TID 0000.0001) %MON ad_advcfl_adwvel_max         =   4.8475891688574E-02
(PID.TID 0000.0001) %MON ad_advcfl_adW_hf_max         =   3.8727114025807E-01
(PID.TID 0000.0001) // =======================================================
(PID.TID 0000.0001) // End MONITOR dynamic field statistics
(PID.TID 0000.0001) // =======================================================
 cg2d: Sum(rhs),rhsMax =   9.47159017883337E-16  1.27930818821580E-03
 cg2d: Sum(rhs),rhsMax =   7.16838372515072E-13  5.84006602841227E-02
 cg2d: Sum(rhs),rhsMax =   7.19349601586983E-13  5.83965554930884E-02
 cg2d: Sum(rhs),rhsMax =   7.19349601586983E-13  5.83965554930884E-02
(PID.TID 0000.0001) // =======================================================
(PID.TID 0000.0001) // Begin MONITOR dynamic field statistics
(PID.TID 0000.0001) // =======================================================
(PID.TID 0000.0001) %MON ad_time_tsnumber             =                  8646
(PID.TID 0000.0001) %MON ad_time_secondsf             =   1.5562800000000E+07
(PID.TID 0000.0001) %MON ad_dynstat_adeta_max         =   2.8635944826132E-02
(PID.TID 0000.0001) %MON ad_dynstat_adeta_min         =  -4.1542807181539E-02
(PID.TID 0000.0001) %MON ad_dynstat_adeta_mean        =  -5.7891440702020E-05
(PID.TID 0000.0001) %MON ad_dynstat_adeta_sd          =   4.9278839625217E-03
(PID.TID 0000.0001) %MON ad_dynstat_adeta_del2        =   7.1101041142232E-05
(PID.TID 0000.0001) %MON ad_dynstat_aduvel_max        =   5.7880516548917E-04
(PID.TID 0000.0001) %MON ad_dynstat_aduvel_min        =  -1.0142225511662E-03
(PID.TID 0000.0001) %MON ad_dynstat_aduvel_mean       =  -3.7000884498108E-04
(PID.TID 0000.0001) %MON ad_dynstat_aduvel_sd         =   1.2608961152323E-04
(PID.TID 0000.0001) %MON ad_dynstat_aduvel_del2       =   6.1754419462852E-08
(PID.TID 0000.0001) %MON ad_dynstat_advvel_max        =   1.0064563642666E-03
(PID.TID 0000.0001) %MON ad_dynstat_advvel_min        =  -1.6636499149251E-03
(PID.TID 0000.0001) %MON ad_dynstat_advvel_mean       =   2.5244678904994E-04
(PID.TID 0000.0001) %MON ad_dynstat_advvel_sd         =   3.5487900751422E-04
(PID.TID 0000.0001) %MON ad_dynstat_advvel_del2       =   1.7690325397230E-07
(PID.TID 0000.0001) %MON ad_dynstat_adwvel_max        =   6.7511031097875E-04
(PID.TID 0000.0001) %MON ad_dynstat_adwvel_min        =  -4.6984678592384E-04
(PID.TID 0000.0001) %MON ad_dynstat_adwvel_mean       =  -3.8477934749492E-06
(PID.TID 0000.0001) %MON ad_dynstat_adwvel_sd         =   2.6709547313420E-05
(PID.TID 0000.0001) %MON ad_dynstat_adwvel_del2       =   1.5190012767388E-07
(PID.TID 0000.0001) %MON ad_dynstat_adtheta_max       =  -8.8360588013712E-01
(PID.TID 0000.0001) %MON ad_dynstat_adtheta_min       =  -7.0752001142408E+00
(PID.TID 0000.0001) %MON ad_dynstat_adtheta_mean      =  -3.8279204985647E+00
(PID.TID 0000.0001) %MON ad_dynstat_adtheta_sd        =   6.9993523663063E-02
(PID.TID 0000.0001) %MON ad_dynstat_adtheta_del2      =   2.8687397636638E-04
(PID.TID 0000.0001) %MON ad_dynstat_adsalt_max        =   2.3723132744615E-03
(PID.TID 0000.0001) %MON ad_dynstat_adsalt_min        =  -7.2818463483304E-04
(PID.TID 0000.0001) %MON ad_dynstat_adsalt_mean       =   5.3193506839696E-05
(PID.TID 0000.0001) %MON ad_dynstat_adsalt_sd         =   2.9422247833519E-04
(PID.TID 0000.0001) %MON ad_dynstat_adsalt_del2       =   5.1968696204993E-07
(PID.TID 0000.0001) %MON ad_dynstat_adsst_max         =   0.0000000000000E+00
(PID.TID 0000.0001) %MON ad_dynstat_adsst_min         =   0.0000000000000E+00
(PID.TID 0000.0001) %MON ad_dynstat_adsst_mean        =   0.0000000000000E+00
(PID.TID 0000.0001) %MON ad_dynstat_adsst_sd          =   0.0000000000000E+00
(PID.TID 0000.0001) %MON ad_dynstat_adsst_del2        =   0.0000000000000E+00
(PID.TID 0000.0001) %MON ad_dynstat_adsss_max         =   0.0000000000000E+00
(PID.TID 0000.0001) %MON ad_dynstat_adsss_min         =   0.0000000000000E+00
(PID.TID 0000.0001) %MON ad_dynstat_adsss_mean        =   0.0000000000000E+00
(PID.TID 0000.0001) %MON ad_dynstat_adsss_sd          =   0.0000000000000E+00
(PID.TID 0000.0001) %MON ad_dynstat_adsss_del2        =   0.0000000000000E+00
(PID.TID 0000.0001) %MON ad_forcing_adqnet_max        =   0.0000000000000E+00
(PID.TID 0000.0001) %MON ad_forcing_adqnet_min        =   0.0000000000000E+00
(PID.TID 0000.0001) %MON ad_forcing_adqnet_mean       =   0.0000000000000E+00
(PID.TID 0000.0001) %MON ad_forcing_adqnet_sd         =   0.0000000000000E+00
(PID.TID 0000.0001) %MON ad_forcing_adqnet_del2       =   0.0000000000000E+00
(PID.TID 0000.0001) %MON ad_forcing_adempmr_max       =   0.0000000000000E+00
(PID.TID 0000.0001) %MON ad_forcing_adempmr_min       =   0.0000000000000E+00
(PID.TID 0000.0001) %MON ad_forcing_adempmr_mean      =   0.0000000000000E+00
(PID.TID 0000.0001) %MON ad_forcing_adempmr_sd        =   0.0000000000000E+00
(PID.TID 0000.0001) %MON ad_forcing_adempmr_del2      =   0.0000000000000E+00
(PID.TID 0000.0001) %MON ad_forcing_adfu_max          =   0.0000000000000E+00
(PID.TID 0000.0001) %MON ad_forcing_adfu_min          =   0.0000000000000E+00
(PID.TID 0000.0001) %MON ad_forcing_adfu_mean         =   0.0000000000000E+00
(PID.TID 0000.0001) %MON ad_forcing_adfu_sd           =   0.0000000000000E+00
(PID.TID 0000.0001) %MON ad_forcing_adfu_del2         =   0.0000000000000E+00
(PID.TID 0000.0001) %MON ad_forcing_adfv_max          =   0.0000000000000E+00
(PID.TID 0000.0001) %MON ad_forcing_adfv_min          =   0.0000000000000E+00
(PID.TID 0000.0001) %MON ad_forcing_adfv_mean         =   0.0000000000000E+00
(PID.TID 0000.0001) %MON ad_forcing_adfv_sd           =   0.0000000000000E+00
(PID.TID 0000.0001) %MON ad_forcing_adfv_del2         =   0.0000000000000E+00
(PID.TID 0000.0001) %MON ad_advcfl_aduvel_max         =   2.4801070536820E-04
(PID.TID 0000.0001) %MON ad_advcfl_advvel_max         =   2.6935041394429E-04
(PID.TID 0000.0001) %MON ad_advcfl_adwvel_max         =   4.0506618658725E-02
(PID.TID 0000.0001) %MON ad_advcfl_adW_hf_max         =   3.2359629427362E-01
(PID.TID 0000.0001) // =======================================================
(PID.TID 0000.0001) // End MONITOR dynamic field statistics
(PID.TID 0000.0001) // =======================================================
 cg2d: Sum(rhs),rhsMax =  -8.60422844084496E-16  1.52945827786715E-03
 cg2d: Sum(rhs),rhsMax =   7.16838372515072E-13  5.84006602841227E-02
(PID.TID 0000.0001) // =======================================================
(PID.TID 0000.0001) // Begin MONITOR dynamic field statistics
(PID.TID 0000.0001) // =======================================================
(PID.TID 0000.0001) %MON ad_time_tsnumber             =                  8645
(PID.TID 0000.0001) %MON ad_time_secondsf             =   1.5561000000000E+07
(PID.TID 0000.0001) %MON ad_dynstat_adeta_max         =   2.7107840898198E-02
(PID.TID 0000.0001) %MON ad_dynstat_adeta_min         =  -4.2879172082611E-02
(PID.TID 0000.0001) %MON ad_dynstat_adeta_mean        =  -9.0389235861832E-05
(PID.TID 0000.0001) %MON ad_dynstat_adeta_sd          =   5.0727859131330E-03
(PID.TID 0000.0001) %MON ad_dynstat_adeta_del2        =   7.3145434099328E-05
(PID.TID 0000.0001) %MON ad_dynstat_aduvel_max        =   5.4975875677371E-04
(PID.TID 0000.0001) %MON ad_dynstat_aduvel_min        =  -7.9762560061668E-04
(PID.TID 0000.0001) %MON ad_dynstat_aduvel_mean       =  -4.4337951991124E-04
(PID.TID 0000.0001) %MON ad_dynstat_aduvel_sd         =   1.4580941238600E-04
(PID.TID 0000.0001) %MON ad_dynstat_aduvel_del2       =   6.4563456971718E-08
(PID.TID 0000.0001) %MON ad_dynstat_advvel_max        =   8.2220668105542E-04
(PID.TID 0000.0001) %MON ad_dynstat_advvel_min        =  -1.5460296923515E-03
(PID.TID 0000.0001) %MON ad_dynstat_advvel_mean       =   1.8084467132891E-05
(PID.TID 0000.0001) %MON ad_dynstat_advvel_sd         =   3.2926318530267E-04
(PID.TID 0000.0001) %MON ad_dynstat_advvel_del2       =   1.5947033067584E-07
(PID.TID 0000.0001) %MON ad_dynstat_adwvel_max        =   4.4918070791422E-04
(PID.TID 0000.0001) %MON ad_dynstat_adwvel_min        =  -5.3411414565220E-04
(PID.TID 0000.0001) %MON ad_dynstat_adwvel_mean       =  -5.0533546288305E-06
(PID.TID 0000.0001) %MON ad_dynstat_adwvel_sd         =   3.5516806665974E-05
(PID.TID 0000.0001) %MON ad_dynstat_adwvel_del2       =   1.8820373635184E-07
(PID.TID 0000.0001) %MON ad_dynstat_adtheta_max       =  -7.1461298722131E-01
(PID.TID 0000.0001) %MON ad_dynstat_adtheta_min       =  -7.0607376463653E+00
(PID.TID 0000.0001) %MON ad_dynstat_adtheta_mean      =  -3.8277078528667E+00
(PID.TID 0000.0001) %MON ad_dynstat_adtheta_sd        =   6.9630655819785E-02
(PID.TID 0000.0001) %MON ad_dynstat_adtheta_del2      =   2.8856033512066E-04
(PID.TID 0000.0001) %MON ad_dynstat_adsalt_max        =   2.9009645218580E-03
(PID.TID 0000.0001) %MON ad_dynstat_adsalt_min        =  -8.8900560759759E-04
(PID.TID 0000.0001) %MON ad_dynstat_adsalt_mean       =   6.4720755946886E-05
(PID.TID 0000.0001) %MON ad_dynstat_adsalt_sd         =   3.5948971866201E-04
(PID.TID 0000.0001) %MON ad_dynstat_adsalt_del2       =   6.3381365471204E-07
(PID.TID 0000.0001) %MON ad_dynstat_adsst_max         =   0.0000000000000E+00
(PID.TID 0000.0001) %MON ad_dynstat_adsst_min         =   0.0000000000000E+00
(PID.TID 0000.0001) %MON ad_dynstat_adsst_mean        =   0.0000000000000E+00
(PID.TID 0000.0001) %MON ad_dynstat_adsst_sd          =   0.0000000000000E+00
(PID.TID 0000.0001) %MON ad_dynstat_adsst_del2        =   0.0000000000000E+00
(PID.TID 0000.0001) %MON ad_dynstat_adsss_max         =   0.0000000000000E+00
(PID.TID 0000.0001) %MON ad_dynstat_adsss_min         =   0.0000000000000E+00
(PID.TID 0000.0001) %MON ad_dynstat_adsss_mean        =   0.0000000000000E+00
(PID.TID 0000.0001) %MON ad_dynstat_adsss_sd          =   0.0000000000000E+00
(PID.TID 0000.0001) %MON ad_dynstat_adsss_del2        =   0.0000000000000E+00
(PID.TID 0000.0001) %MON ad_forcing_adqnet_max        =   0.0000000000000E+00
(PID.TID 0000.0001) %MON ad_forcing_adqnet_min        =   0.0000000000000E+00
(PID.TID 0000.0001) %MON ad_forcing_adqnet_mean       =   0.0000000000000E+00
(PID.TID 0000.0001) %MON ad_forcing_adqnet_sd         =   0.0000000000000E+00
(PID.TID 0000.0001) %MON ad_forcing_adqnet_del2       =   0.0000000000000E+00
(PID.TID 0000.0001) %MON ad_forcing_adempmr_max       =   0.0000000000000E+00
(PID.TID 0000.0001) %MON ad_forcing_adempmr_min       =   0.0000000000000E+00
(PID.TID 0000.0001) %MON ad_forcing_adempmr_mean      =   0.0000000000000E+00
(PID.TID 0000.0001) %MON ad_forcing_adempmr_sd        =   0.0000000000000E+00
(PID.TID 0000.0001) %MON ad_forcing_adempmr_del2      =   0.0000000000000E+00
(PID.TID 0000.0001) %MON ad_forcing_adfu_max          =   0.0000000000000E+00
(PID.TID 0000.0001) %MON ad_forcing_adfu_min          =   0.0000000000000E+00
(PID.TID 0000.0001) %MON ad_forcing_adfu_mean         =   0.0000000000000E+00
(PID.TID 0000.0001) %MON ad_forcing_adfu_sd           =   0.0000000000000E+00
(PID.TID 0000.0001) %MON ad_forcing_adfu_del2         =   0.0000000000000E+00
(PID.TID 0000.0001) %MON ad_forcing_adfv_max          =   0.0000000000000E+00
(PID.TID 0000.0001) %MON ad_forcing_adfv_min          =   0.0000000000000E+00
(PID.TID 0000.0001) %MON ad_forcing_adfv_mean         =   0.0000000000000E+00
(PID.TID 0000.0001) %MON ad_forcing_adfv_sd           =   0.0000000000000E+00
(PID.TID 0000.0001) %MON ad_forcing_adfv_del2         =   0.0000000000000E+00
(PID.TID 0000.0001) %MON ad_advcfl_aduvel_max         =   1.9157458006711E-04
(PID.TID 0000.0001) %MON ad_advcfl_advvel_max         =   2.5030731157390E-04
(PID.TID 0000.0001) %MON ad_advcfl_adwvel_max         =   3.2046848739132E-02
(PID.TID 0000.0001) %MON ad_advcfl_adW_hf_max         =   2.5438232320589E-01
(PID.TID 0000.0001) // =======================================================
(PID.TID 0000.0001) // End MONITOR dynamic field statistics
(PID.TID 0000.0001) // =======================================================
 cg2d: Sum(rhs),rhsMax =  -2.99413271953597E-15  1.59673242374460E-03
 cg2d: Sum(rhs),rhsMax =   7.19252348652111E-13  5.84695845115815E-02
 cg2d: Sum(rhs),rhsMax =   7.16812514293258E-13  5.84526906482458E-02
 cg2d: Sum(rhs),rhsMax =   7.16812514293258E-13  5.84526906482458E-02
(PID.TID 0000.0001) // =======================================================
(PID.TID 0000.0001) // Begin MONITOR dynamic field statistics
(PID.TID 0000.0001) // =======================================================
(PID.TID 0000.0001) %MON ad_time_tsnumber             =                  8644
(PID.TID 0000.0001) %MON ad_time_secondsf             =   1.5559200000000E+07
(PID.TID 0000.0001) %MON ad_dynstat_adeta_max         =   2.0802399128845E-02
(PID.TID 0000.0001) %MON ad_dynstat_adeta_min         =  -3.8831954727889E-02
(PID.TID 0000.0001) %MON ad_dynstat_adeta_mean        =  -1.2114928575046E-04
(PID.TID 0000.0001) %MON ad_dynstat_adeta_sd          =   4.7252524111485E-03
(PID.TID 0000.0001) %MON ad_dynstat_adeta_del2        =   6.8429186950435E-05
(PID.TID 0000.0001) %MON ad_dynstat_aduvel_max        =   4.8354750311155E-04
(PID.TID 0000.0001) %MON ad_dynstat_aduvel_min        =  -7.2076537060904E-04
(PID.TID 0000.0001) %MON ad_dynstat_aduvel_mean       =  -4.3200963234877E-04
(PID.TID 0000.0001) %MON ad_dynstat_aduvel_sd         =   1.4564719615294E-04
(PID.TID 0000.0001) %MON ad_dynstat_aduvel_del2       =   6.1178790167101E-08
(PID.TID 0000.0001) %MON ad_dynstat_advvel_max        =   5.6949782632509E-04
(PID.TID 0000.0001) %MON ad_dynstat_advvel_min        =  -1.5251221433934E-03
(PID.TID 0000.0001) %MON ad_dynstat_advvel_mean       =  -2.4738670781156E-04
(PID.TID 0000.0001) %MON ad_dynstat_advvel_sd         =   3.0009516381336E-04
(PID.TID 0000.0001) %MON ad_dynstat_advvel_del2       =   1.3884914775990E-07
(PID.TID 0000.0001) %MON ad_dynstat_adwvel_max        =   3.8201902958317E-04
(PID.TID 0000.0001) %MON ad_dynstat_adwvel_min        =  -6.7660010235264E-04
(PID.TID 0000.0001) %MON ad_dynstat_adwvel_mean       =  -6.0318411529241E-06
(PID.TID 0000.0001) %MON ad_dynstat_adwvel_sd         =   4.3005203111317E-05
(PID.TID 0000.0001) %MON ad_dynstat_adwvel_del2       =   2.1486649713826E-07
(PID.TID 0000.0001) %MON ad_dynstat_adtheta_max       =  -6.6138925749186E-01
(PID.TID 0000.0001) %MON ad_dynstat_adtheta_min       =  -7.0323391543642E+00
(PID.TID 0000.0001) %MON ad_dynstat_adtheta_mean      =  -3.8274812994774E+00
(PID.TID 0000.0001) %MON ad_dynstat_adtheta_sd        =   6.8595064274867E-02
(PID.TID 0000.0001) %MON ad_dynstat_adtheta_del2      =   2.8198962370629E-04
(PID.TID 0000.0001) %MON ad_dynstat_adsalt_max        =   3.4261751328891E-03
(PID.TID 0000.0001) %MON ad_dynstat_adsalt_min        =  -1.0728072708513E-03
(PID.TID 0000.0001) %MON ad_dynstat_adsalt_mean       =   7.7260698821589E-05
(PID.TID 0000.0001) %MON ad_dynstat_adsalt_sd         =   4.2474968526302E-04
(PID.TID 0000.0001) %MON ad_dynstat_adsalt_del2       =   7.4498967621241E-07
(PID.TID 0000.0001) %MON ad_dynstat_adsst_max         =   0.0000000000000E+00
(PID.TID 0000.0001) %MON ad_dynstat_adsst_min         =   0.0000000000000E+00
(PID.TID 0000.0001) %MON ad_dynstat_adsst_mean        =   0.0000000000000E+00
(PID.TID 0000.0001) %MON ad_dynstat_adsst_sd          =   0.0000000000000E+00
(PID.TID 0000.0001) %MON ad_dynstat_adsst_del2        =   0.0000000000000E+00
(PID.TID 0000.0001) %MON ad_dynstat_adsss_max         =   0.0000000000000E+00
(PID.TID 0000.0001) %MON ad_dynstat_adsss_min         =   0.0000000000000E+00
(PID.TID 0000.0001) %MON ad_dynstat_adsss_mean        =   0.0000000000000E+00
(PID.TID 0000.0001) %MON ad_dynstat_adsss_sd          =   0.0000000000000E+00
(PID.TID 0000.0001) %MON ad_dynstat_adsss_del2        =   0.0000000000000E+00
(PID.TID 0000.0001) %MON ad_forcing_adqnet_max        =   0.0000000000000E+00
(PID.TID 0000.0001) %MON ad_forcing_adqnet_min        =   0.0000000000000E+00
(PID.TID 0000.0001) %MON ad_forcing_adqnet_mean       =   0.0000000000000E+00
(PID.TID 0000.0001) %MON ad_forcing_adqnet_sd         =   0.0000000000000E+00
(PID.TID 0000.0001) %MON ad_forcing_adqnet_del2       =   0.0000000000000E+00
(PID.TID 0000.0001) %MON ad_forcing_adempmr_max       =   0.0000000000000E+00
(PID.TID 0000.0001) %MON ad_forcing_adempmr_min       =   0.0000000000000E+00
(PID.TID 0000.0001) %MON ad_forcing_adempmr_mean      =   0.0000000000000E+00
(PID.TID 0000.0001) %MON ad_forcing_adempmr_sd        =   0.0000000000000E+00
(PID.TID 0000.0001) %MON ad_forcing_adempmr_del2      =   0.0000000000000E+00
(PID.TID 0000.0001) %MON ad_forcing_adfu_max          =   0.0000000000000E+00
(PID.TID 0000.0001) %MON ad_forcing_adfu_min          =   0.0000000000000E+00
(PID.TID 0000.0001) %MON ad_forcing_adfu_mean         =   0.0000000000000E+00
(PID.TID 0000.0001) %MON ad_forcing_adfu_sd           =   0.0000000000000E+00
(PID.TID 0000.0001) %MON ad_forcing_adfu_del2         =   0.0000000000000E+00
(PID.TID 0000.0001) %MON ad_forcing_adfv_max          =   0.0000000000000E+00
(PID.TID 0000.0001) %MON ad_forcing_adfv_min          =   0.0000000000000E+00
(PID.TID 0000.0001) %MON ad_forcing_adfv_mean         =   0.0000000000000E+00
(PID.TID 0000.0001) %MON ad_forcing_adfv_sd           =   0.0000000000000E+00
(PID.TID 0000.0001) %MON ad_forcing_adfv_del2         =   0.0000000000000E+00
(PID.TID 0000.0001) %MON ad_advcfl_aduvel_max         =   1.8033877777924E-04
(PID.TID 0000.0001) %MON ad_advcfl_advvel_max         =   2.4692231036907E-04
(PID.TID 0000.0001) %MON ad_advcfl_adwvel_max         =   4.0596006141159E-02
(PID.TID 0000.0001) %MON ad_advcfl_adW_hf_max         =   2.7188081098981E-01
(PID.TID 0000.0001) // =======================================================
(PID.TID 0000.0001) // End MONITOR dynamic field statistics
(PID.TID 0000.0001) // =======================================================
 cg2d: Sum(rhs),rhsMax =   4.54497550705923E-16  1.47674994965592E-03
 cg2d: Sum(rhs),rhsMax =   7.19252348652111E-13  5.84695845115815E-02
(PID.TID 0000.0001) // =======================================================
(PID.TID 0000.0001) // Begin MONITOR dynamic field statistics
(PID.TID 0000.0001) // =======================================================
(PID.TID 0000.0001) %MON ad_time_tsnumber             =                  8643
(PID.TID 0000.0001) %MON ad_time_secondsf             =   1.5557400000000E+07
(PID.TID 0000.0001) %MON ad_dynstat_adeta_max         =   1.0374484594410E-02
(PID.TID 0000.0001) %MON ad_dynstat_adeta_min         =  -2.9982020930524E-02
(PID.TID 0000.0001) %MON ad_dynstat_adeta_mean        =  -1.4492862022338E-04
(PID.TID 0000.0001) %MON ad_dynstat_adeta_sd          =   4.2137968031128E-03
(PID.TID 0000.0001) %MON ad_dynstat_adeta_del2        =   6.2031082465989E-05
(PID.TID 0000.0001) %MON ad_dynstat_aduvel_max        =   4.6687385305572E-04
(PID.TID 0000.0001) %MON ad_dynstat_aduvel_min        =  -5.9342695824316E-04
(PID.TID 0000.0001) %MON ad_dynstat_aduvel_mean       =  -3.3378774310284E-04
(PID.TID 0000.0001) %MON ad_dynstat_aduvel_sd         =   1.3246896275737E-04
(PID.TID 0000.0001) %MON ad_dynstat_aduvel_del2       =   5.4320177038490E-08
(PID.TID 0000.0001) %MON ad_dynstat_advvel_max        =   3.1375375942733E-04
(PID.TID 0000.0001) %MON ad_dynstat_advvel_min        =  -1.5258008651624E-03
(PID.TID 0000.0001) %MON ad_dynstat_advvel_mean       =  -5.0052613372286E-04
(PID.TID 0000.0001) %MON ad_dynstat_advvel_sd         =   2.7861078514870E-04
(PID.TID 0000.0001) %MON ad_dynstat_advvel_del2       =   1.2904865489147E-07
(PID.TID 0000.0001) %MON ad_dynstat_adwvel_max        =   4.1589141370510E-04
(PID.TID 0000.0001) %MON ad_dynstat_adwvel_min        =  -8.0659751925831E-04
(PID.TID 0000.0001) %MON ad_dynstat_adwvel_mean       =  -6.8075942754673E-06
(PID.TID 0000.0001) %MON ad_dynstat_adwvel_sd         =   4.9181478344961E-05
(PID.TID 0000.0001) %MON ad_dynstat_adwvel_del2       =   2.3476303792633E-07
(PID.TID 0000.0001) %MON ad_dynstat_adtheta_max       =  -6.4489368213309E-01
(PID.TID 0000.0001) %MON ad_dynstat_adtheta_min       =  -7.0204999651012E+00
(PID.TID 0000.0001) %MON ad_dynstat_adtheta_mean      =  -3.8272999276553E+00
(PID.TID 0000.0001) %MON ad_dynstat_adtheta_sd        =   6.9282483383586E-02
(PID.TID 0000.0001) %MON ad_dynstat_adtheta_del2      =   2.7875065230396E-04
(PID.TID 0000.0001) %MON ad_dynstat_adsalt_max        =   3.9466894855139E-03
(PID.TID 0000.0001) %MON ad_dynstat_adsalt_min        =  -1.2921588223754E-03
(PID.TID 0000.0001) %MON ad_dynstat_adsalt_mean       =   9.0974930589336E-05
(PID.TID 0000.0001) %MON ad_dynstat_adsalt_sd         =   4.9010393409550E-04
(PID.TID 0000.0001) %MON ad_dynstat_adsalt_del2       =   8.5316123814257E-07
(PID.TID 0000.0001) %MON ad_dynstat_adsst_max         =   0.0000000000000E+00
(PID.TID 0000.0001) %MON ad_dynstat_adsst_min         =   0.0000000000000E+00
(PID.TID 0000.0001) %MON ad_dynstat_adsst_mean        =   0.0000000000000E+00
(PID.TID 0000.0001) %MON ad_dynstat_adsst_sd          =   0.0000000000000E+00
(PID.TID 0000.0001) %MON ad_dynstat_adsst_del2        =   0.0000000000000E+00
(PID.TID 0000.0001) %MON ad_dynstat_adsss_max         =   0.0000000000000E+00
(PID.TID 0000.0001) %MON ad_dynstat_adsss_min         =   0.0000000000000E+00
(PID.TID 0000.0001) %MON ad_dynstat_adsss_mean        =   0.0000000000000E+00
(PID.TID 0000.0001) %MON ad_dynstat_adsss_sd          =   0.0000000000000E+00
(PID.TID 0000.0001) %MON ad_dynstat_adsss_del2        =   0.0000000000000E+00
(PID.TID 0000.0001) %MON ad_forcing_adqnet_max        =   0.0000000000000E+00
(PID.TID 0000.0001) %MON ad_forcing_adqnet_min        =   0.0000000000000E+00
(PID.TID 0000.0001) %MON ad_forcing_adqnet_mean       =   0.0000000000000E+00
(PID.TID 0000.0001) %MON ad_forcing_adqnet_sd         =   0.0000000000000E+00
(PID.TID 0000.0001) %MON ad_forcing_adqnet_del2       =   0.0000000000000E+00
(PID.TID 0000.0001) %MON ad_forcing_adempmr_max       =   0.0000000000000E+00
(PID.TID 0000.0001) %MON ad_forcing_adempmr_min       =   0.0000000000000E+00
(PID.TID 0000.0001) %MON ad_forcing_adempmr_mean      =   0.0000000000000E+00
(PID.TID 0000.0001) %MON ad_forcing_adempmr_sd        =   0.0000000000000E+00
(PID.TID 0000.0001) %MON ad_forcing_adempmr_del2      =   0.0000000000000E+00
(PID.TID 0000.0001) %MON ad_forcing_adfu_max          =   0.0000000000000E+00
(PID.TID 0000.0001) %MON ad_forcing_adfu_min          =   0.0000000000000E+00
(PID.TID 0000.0001) %MON ad_forcing_adfu_mean         =   0.0000000000000E+00
(PID.TID 0000.0001) %MON ad_forcing_adfu_sd           =   0.0000000000000E+00
(PID.TID 0000.0001) %MON ad_forcing_adfu_del2         =   0.0000000000000E+00
(PID.TID 0000.0001) %MON ad_forcing_adfv_max          =   0.0000000000000E+00
(PID.TID 0000.0001) %MON ad_forcing_adfv_min          =   0.0000000000000E+00
(PID.TID 0000.0001) %MON ad_forcing_adfv_mean         =   0.0000000000000E+00
(PID.TID 0000.0001) %MON ad_forcing_adfv_sd           =   0.0000000000000E+00
(PID.TID 0000.0001) %MON ad_forcing_adfv_del2         =   0.0000000000000E+00
(PID.TID 0000.0001) %MON ad_advcfl_aduvel_max         =   1.4774802587486E-04
(PID.TID 0000.0001) %MON ad_advcfl_advvel_max         =   2.4703219766434E-04
(PID.TID 0000.0001) %MON ad_advcfl_adwvel_max         =   4.8395851155499E-02
(PID.TID 0000.0001) %MON ad_advcfl_adW_hf_max         =   2.7743719172793E-01
(PID.TID 0000.0001) // =======================================================
(PID.TID 0000.0001) // End MONITOR dynamic field statistics
(PID.TID 0000.0001) // =======================================================
 cg2d: Sum(rhs),rhsMax =   5.34294830600857E-16  1.18593146360369E-03
(PID.TID 0000.0001) SOLVE_FOR_PRESSURE: putPmEinXvector =    F
 cg2d: Sum(rhs),rhsMax =   7.04913205714849E-13  5.97849185308842E-02
 cg2d: Sum(rhs),rhsMax =   7.19866603392932E-13  5.85466144270072E-02
 cg2d: Sum(rhs),rhsMax =   7.19866603392932E-13  5.85466144270072E-02
(PID.TID 0000.0001) // =======================================================
(PID.TID 0000.0001) // Begin MONITOR dynamic field statistics
(PID.TID 0000.0001) // =======================================================
(PID.TID 0000.0001) %MON ad_time_tsnumber             =                  8642
(PID.TID 0000.0001) %MON ad_time_secondsf             =   1.5555600000000E+07
(PID.TID 0000.0001) %MON ad_dynstat_adeta_max         =   1.0351376391320E-02
(PID.TID 0000.0001) %MON ad_dynstat_adeta_min         =  -4.3379649573817E-02
(PID.TID 0000.0001) %MON ad_dynstat_adeta_mean        =  -1.5769500051533E-04
(PID.TID 0000.0001) %MON ad_dynstat_adeta_sd          =   4.1735419893044E-03
(PID.TID 0000.0001) %MON ad_dynstat_adeta_del2        =   6.3005413777823E-05
(PID.TID 0000.0001) %MON ad_dynstat_aduvel_max        =   7.4951988206471E-04
(PID.TID 0000.0001) %MON ad_dynstat_aduvel_min        =  -3.7751841731868E-04
(PID.TID 0000.0001) %MON ad_dynstat_aduvel_mean       =  -1.6415452211639E-04
(PID.TID 0000.0001) %MON ad_dynstat_aduvel_sd         =   1.2021472400414E-04
(PID.TID 0000.0001) %MON ad_dynstat_aduvel_del2       =   5.0734733011311E-08
(PID.TID 0000.0001) %MON ad_dynstat_advvel_max        =   9.0726562381597E-05
(PID.TID 0000.0001) %MON ad_dynstat_advvel_min        =  -1.5415760633245E-03
(PID.TID 0000.0001) %MON ad_dynstat_advvel_mean       =  -7.0163830991760E-04
(PID.TID 0000.0001) %MON ad_dynstat_advvel_sd         =   2.6906750381919E-04
(PID.TID 0000.0001) %MON ad_dynstat_advvel_del2       =   1.4105898055183E-07
(PID.TID 0000.0001) %MON ad_dynstat_adwvel_max        =   4.4510639140822E-04
(PID.TID 0000.0001) %MON ad_dynstat_adwvel_min        =  -9.1498101993614E-04
(PID.TID 0000.0001) %MON ad_dynstat_adwvel_mean       =  -7.4028613847743E-06
(PID.TID 0000.0001) %MON ad_dynstat_adwvel_sd         =   5.4050824403113E-05
(PID.TID 0000.0001) %MON ad_dynstat_adwvel_del2       =   2.4998279709147E-07
(PID.TID 0000.0001) %MON ad_dynstat_adtheta_max       =  -6.3958028210797E-01
(PID.TID 0000.0001) %MON ad_dynstat_adtheta_min       =  -7.0105785525702E+00
(PID.TID 0000.0001) %MON ad_dynstat_adtheta_mean      =  -3.8271432619937E+00
(PID.TID 0000.0001) %MON ad_dynstat_adtheta_sd        =   7.0114664403797E-02
(PID.TID 0000.0001) %MON ad_dynstat_adtheta_del2      =   2.7729972522374E-04
(PID.TID 0000.0001) %MON ad_dynstat_adsalt_max        =   4.4615867265059E-03
(PID.TID 0000.0001) %MON ad_dynstat_adsalt_min        =  -1.5733159290347E-03
(PID.TID 0000.0001) %MON ad_dynstat_adsalt_mean       =   1.0587372160556E-04
(PID.TID 0000.0001) %MON ad_dynstat_adsalt_sd         =   5.5545869311801E-04
(PID.TID 0000.0001) %MON ad_dynstat_adsalt_del2       =   9.6007315135664E-07
(PID.TID 0000.0001) %MON ad_dynstat_adsst_max         =   0.0000000000000E+00
(PID.TID 0000.0001) %MON ad_dynstat_adsst_min         =   0.0000000000000E+00
(PID.TID 0000.0001) %MON ad_dynstat_adsst_mean        =   0.0000000000000E+00
(PID.TID 0000.0001) %MON ad_dynstat_adsst_sd          =   0.0000000000000E+00
(PID.TID 0000.0001) %MON ad_dynstat_adsst_del2        =   0.0000000000000E+00
(PID.TID 0000.0001) %MON ad_dynstat_adsss_max         =   0.0000000000000E+00
(PID.TID 0000.0001) %MON ad_dynstat_adsss_min         =   0.0000000000000E+00
(PID.TID 0000.0001) %MON ad_dynstat_adsss_mean        =   0.0000000000000E+00
(PID.TID 0000.0001) %MON ad_dynstat_adsss_sd          =   0.0000000000000E+00
(PID.TID 0000.0001) %MON ad_dynstat_adsss_del2        =   0.0000000000000E+00
(PID.TID 0000.0001) %MON ad_forcing_adqnet_max        =   0.0000000000000E+00
(PID.TID 0000.0001) %MON ad_forcing_adqnet_min        =   0.0000000000000E+00
(PID.TID 0000.0001) %MON ad_forcing_adqnet_mean       =   0.0000000000000E+00
(PID.TID 0000.0001) %MON ad_forcing_adqnet_sd         =   0.0000000000000E+00
(PID.TID 0000.0001) %MON ad_forcing_adqnet_del2       =   0.0000000000000E+00
(PID.TID 0000.0001) %MON ad_forcing_adempmr_max       =   0.0000000000000E+00
(PID.TID 0000.0001) %MON ad_forcing_adempmr_min       =   0.0000000000000E+00
(PID.TID 0000.0001) %MON ad_forcing_adempmr_mean      =   0.0000000000000E+00
(PID.TID 0000.0001) %MON ad_forcing_adempmr_sd        =   0.0000000000000E+00
(PID.TID 0000.0001) %MON ad_forcing_adempmr_del2      =   0.0000000000000E+00
(PID.TID 0000.0001) %MON ad_forcing_adfu_max          =   0.0000000000000E+00
(PID.TID 0000.0001) %MON ad_forcing_adfu_min          =   0.0000000000000E+00
(PID.TID 0000.0001) %MON ad_forcing_adfu_mean         =   0.0000000000000E+00
(PID.TID 0000.0001) %MON ad_forcing_adfu_sd           =   0.0000000000000E+00
(PID.TID 0000.0001) %MON ad_forcing_adfu_del2         =   0.0000000000000E+00
(PID.TID 0000.0001) %MON ad_forcing_adfv_max          =   0.0000000000000E+00
(PID.TID 0000.0001) %MON ad_forcing_adfv_min          =   0.0000000000000E+00
(PID.TID 0000.0001) %MON ad_forcing_adfv_mean         =   0.0000000000000E+00
(PID.TID 0000.0001) %MON ad_forcing_adfv_sd           =   0.0000000000000E+00
(PID.TID 0000.0001) %MON ad_forcing_adfv_del2         =   0.0000000000000E+00
(PID.TID 0000.0001) %MON ad_advcfl_aduvel_max         =   1.8328221397229E-04
(PID.TID 0000.0001) %MON ad_advcfl_advvel_max         =   2.4958625433029E-04
(PID.TID 0000.0001) %MON ad_advcfl_adwvel_max         =   5.4898861196169E-02
(PID.TID 0000.0001) %MON ad_advcfl_adW_hf_max         =   3.5595580044697E-01
(PID.TID 0000.0001) // =======================================================
(PID.TID 0000.0001) // End MONITOR dynamic field statistics
(PID.TID 0000.0001) // =======================================================
 cg2d: Sum(rhs),rhsMax =   2.35922392732846E-15  1.84749839779182E-03
(PID.TID 0000.0001) SOLVE_FOR_PRESSURE: putPmEinXvector =    F
 cg2d: Sum(rhs),rhsMax =   7.04913205714849E-13  5.97849185308842E-02
(PID.TID 0000.0001) // =======================================================
(PID.TID 0000.0001) // Begin MONITOR dynamic field statistics
(PID.TID 0000.0001) // =======================================================
(PID.TID 0000.0001) %MON ad_time_tsnumber             =                  8641
(PID.TID 0000.0001) %MON ad_time_secondsf             =   1.5553800000000E+07
(PID.TID 0000.0001) %MON ad_dynstat_adeta_max         =   1.0849539354396E-02
(PID.TID 0000.0001) %MON ad_dynstat_adeta_min         =  -6.1836612632273E-02
(PID.TID 0000.0001) %MON ad_dynstat_adeta_mean        =  -1.5696313077257E-04
(PID.TID 0000.0001) %MON ad_dynstat_adeta_sd          =   5.0585540935876E-03
(PID.TID 0000.0001) %MON ad_dynstat_adeta_del2        =   7.6851964506387E-05
(PID.TID 0000.0001) %MON ad_dynstat_aduvel_max        =   1.4051342270165E-03
(PID.TID 0000.0001) %MON ad_dynstat_aduvel_min        =  -2.8886435206025E-04
(PID.TID 0000.0001) %MON ad_dynstat_aduvel_mean       =   5.1747262276143E-05
(PID.TID 0000.0001) %MON ad_dynstat_aduvel_sd         =   1.2465069832887E-04
(PID.TID 0000.0001) %MON ad_dynstat_aduvel_del2       =   5.8876447007768E-08
(PID.TID 0000.0001) %MON ad_dynstat_advvel_max        =   4.0470041269749E-04
(PID.TID 0000.0001) %MON ad_dynstat_advvel_min        =  -1.4024192233988E-03
(PID.TID 0000.0001) %MON ad_dynstat_advvel_mean       =  -8.2073819222188E-04
(PID.TID 0000.0001) %MON ad_dynstat_advvel_sd         =   2.7103666780934E-04
(PID.TID 0000.0001) %MON ad_dynstat_advvel_del2       =   1.7201139460171E-07
(PID.TID 0000.0001) %MON ad_dynstat_adwvel_max        =   4.6311290323678E-04
(PID.TID 0000.0001) %MON ad_dynstat_adwvel_min        =  -1.0464933877495E-03
(PID.TID 0000.0001) %MON ad_dynstat_adwvel_mean       =  -7.8007361579795E-06
(PID.TID 0000.0001) %MON ad_dynstat_adwvel_sd         =   5.7437257122539E-05
(PID.TID 0000.0001) %MON ad_dynstat_adwvel_del2       =   2.6036660061329E-07
(PID.TID 0000.0001) %MON ad_dynstat_adtheta_max       =  -6.3766921588350E-01
(PID.TID 0000.0001) %MON ad_dynstat_adtheta_min       =  -7.0333591232487E+00
(PID.TID 0000.0001) %MON ad_dynstat_adtheta_mean      =  -3.8270515280997E+00
(PID.TID 0000.0001) %MON ad_dynstat_adtheta_sd        =   7.2398603169846E-02
(PID.TID 0000.0001) %MON ad_dynstat_adtheta_del2      =   3.2815853901245E-04
(PID.TID 0000.0001) %MON ad_dynstat_adsalt_max        =   4.9703463073097E-03
(PID.TID 0000.0001) %MON ad_dynstat_adsalt_min        =  -1.8690392646766E-03
(PID.TID 0000.0001) %MON ad_dynstat_adsalt_mean       =   1.2181689426749E-04
(PID.TID 0000.0001) %MON ad_dynstat_adsalt_sd         =   6.2096448015809E-04
(PID.TID 0000.0001) %MON ad_dynstat_adsalt_del2       =   1.0673236011140E-06
(PID.TID 0000.0001) %MON ad_dynstat_adsst_max         =   0.0000000000000E+00
(PID.TID 0000.0001) %MON ad_dynstat_adsst_min         =   0.0000000000000E+00
(PID.TID 0000.0001) %MON ad_dynstat_adsst_mean        =   0.0000000000000E+00
(PID.TID 0000.0001) %MON ad_dynstat_adsst_sd          =   0.0000000000000E+00
(PID.TID 0000.0001) %MON ad_dynstat_adsst_del2        =   0.0000000000000E+00
(PID.TID 0000.0001) %MON ad_dynstat_adsss_max         =   0.0000000000000E+00
(PID.TID 0000.0001) %MON ad_dynstat_adsss_min         =   0.0000000000000E+00
(PID.TID 0000.0001) %MON ad_dynstat_adsss_mean        =   0.0000000000000E+00
(PID.TID 0000.0001) %MON ad_dynstat_adsss_sd          =   0.0000000000000E+00
(PID.TID 0000.0001) %MON ad_dynstat_adsss_del2        =   0.0000000000000E+00
(PID.TID 0000.0001) %MON ad_forcing_adqnet_max        =   0.0000000000000E+00
(PID.TID 0000.0001) %MON ad_forcing_adqnet_min        =   0.0000000000000E+00
(PID.TID 0000.0001) %MON ad_forcing_adqnet_mean       =   0.0000000000000E+00
(PID.TID 0000.0001) %MON ad_forcing_adqnet_sd         =   0.0000000000000E+00
(PID.TID 0000.0001) %MON ad_forcing_adqnet_del2       =   0.0000000000000E+00
(PID.TID 0000.0001) %MON ad_forcing_adempmr_max       =   0.0000000000000E+00
(PID.TID 0000.0001) %MON ad_forcing_adempmr_min       =   0.0000000000000E+00
(PID.TID 0000.0001) %MON ad_forcing_adempmr_mean      =   0.0000000000000E+00
(PID.TID 0000.0001) %MON ad_forcing_adempmr_sd        =   0.0000000000000E+00
(PID.TID 0000.0001) %MON ad_forcing_adempmr_del2      =   0.0000000000000E+00
(PID.TID 0000.0001) %MON ad_forcing_adfu_max          =   0.0000000000000E+00
(PID.TID 0000.0001) %MON ad_forcing_adfu_min          =   0.0000000000000E+00
(PID.TID 0000.0001) %MON ad_forcing_adfu_mean         =   0.0000000000000E+00
(PID.TID 0000.0001) %MON ad_forcing_adfu_sd           =   0.0000000000000E+00
(PID.TID 0000.0001) %MON ad_forcing_adfu_del2         =   0.0000000000000E+00
(PID.TID 0000.0001) %MON ad_forcing_adfv_max          =   0.0000000000000E+00
(PID.TID 0000.0001) %MON ad_forcing_adfv_min          =   0.0000000000000E+00
(PID.TID 0000.0001) %MON ad_forcing_adfv_mean         =   0.0000000000000E+00
(PID.TID 0000.0001) %MON ad_forcing_adfv_sd           =   0.0000000000000E+00
(PID.TID 0000.0001) %MON ad_forcing_adfv_del2         =   0.0000000000000E+00
(PID.TID 0000.0001) %MON ad_advcfl_aduvel_max         =   3.4360144169409E-04
(PID.TID 0000.0001) %MON ad_advcfl_advvel_max         =   2.2705630250514E-04
(PID.TID 0000.0001) %MON ad_advcfl_adwvel_max         =   6.2789603264971E-02
(PID.TID 0000.0001) %MON ad_advcfl_adW_hf_max         =   4.8034504134384E-01
(PID.TID 0000.0001) // =======================================================
(PID.TID 0000.0001) // End MONITOR dynamic field statistics
(PID.TID 0000.0001) // =======================================================
 cg2d: Sum(rhs),rhsMax =   2.32452945780892E-16  2.52489975485648E-03
(PID.TID 0000.0001)  nRecords = 243 ; filePrec =  64 ; fileIter =      8640
(PID.TID 0000.0001)     nDims =   2 , dims:
(PID.TID 0000.0001)    1:  50   1  50
(PID.TID 0000.0001)    2: 100   1 100
(PID.TID 0000.0001)     nFlds =  11 , nFl3D =   8 , fields:
(PID.TID 0000.0001)  >Uvel    < >Vvel    < >Theta   < >Salt    < >GuNm1   < >GvNm1   < >GtNm1   < >GsNm1   < >EtaN    < >dEtaHdt < >EtaH    <
(PID.TID 0000.0001)   nTimRec =   0 , timeList:
(PID.TID 0000.0001) READ_MFLDS_3D_RL: read field: "Uvel    ", #   1 in fldList, rec=   1
(PID.TID 0000.0001) READ_MFLDS_3D_RL: read field: "Vvel    ", #   2 in fldList, rec=   2
(PID.TID 0000.0001) READ_MFLDS_3D_RL: read field: "Theta   ", #   3 in fldList, rec=   3
(PID.TID 0000.0001) READ_MFLDS_3D_RL: read field: "Salt    ", #   4 in fldList, rec=   4
(PID.TID 0000.0001) READ_MFLDS_3D_RL: read field: "GuNm1   ", #   5 in fldList, rec=   5
(PID.TID 0000.0001) READ_MFLDS_3D_RL: read field: "GvNm1   ", #   6 in fldList, rec=   6
(PID.TID 0000.0001) READ_MFLDS_3D_RL: read field: "GtNm1   ", #   7 in fldList, rec=   7
(PID.TID 0000.0001) READ_MFLDS_3D_RL: read field: "GsNm1   ", #   8 in fldList, rec=   8
(PID.TID 0000.0001) READ_MFLDS_3D_RL: read field: "EtaN    ", #   9 in fldList, rec= 241
(PID.TID 0000.0001) READ_MFLDS_3D_RL: read field: "dEtaHdt ", #  10 in fldList, rec= 242
(PID.TID 0000.0001) READ_MFLDS_3D_RL: read field: "EtaH    ", #  11 in fldList, rec= 243
(PID.TID 0000.0001) READ_MFLDS_CHECK: - normal end ; reset MFLDS file-name: pickup.0000008640
(PID.TID 0000.0001) // =======================================================
(PID.TID 0000.0001) // Begin MONITOR dynamic field statistics
(PID.TID 0000.0001) // =======================================================
(PID.TID 0000.0001) %MON ad_time_tsnumber             =                  8640
(PID.TID 0000.0001) %MON ad_time_secondsf             =   1.5552000000000E+07
(PID.TID 0000.0001) %MON ad_dynstat_adeta_max         =   2.1088322585938E-02
(PID.TID 0000.0001) %MON ad_dynstat_adeta_min         =  -7.8858870528295E-02
(PID.TID 0000.0001) %MON ad_dynstat_adeta_mean        =  -1.4189390245205E-04
(PID.TID 0000.0001) %MON ad_dynstat_adeta_sd          =   6.5524242969061E-03
(PID.TID 0000.0001) %MON ad_dynstat_adeta_del2        =   9.8734304747028E-05
(PID.TID 0000.0001) %MON ad_dynstat_aduvel_max        =   1.9522139793083E-03
(PID.TID 0000.0001) %MON ad_dynstat_aduvel_min        =  -4.6602654194636E-04
(PID.TID 0000.0001) %MON ad_dynstat_aduvel_mean       =   2.8501106434195E-04
(PID.TID 0000.0001) %MON ad_dynstat_aduvel_sd         =   1.4956188407299E-04
(PID.TID 0000.0001) %MON ad_dynstat_aduvel_del2       =   7.3004054678083E-08
(PID.TID 0000.0001) %MON ad_dynstat_advvel_max        =   9.5031194778675E-04
(PID.TID 0000.0001) %MON ad_dynstat_advvel_min        =  -1.2026152748436E-03
(PID.TID 0000.0001) %MON ad_dynstat_advvel_mean       =  -8.3987842108324E-04
(PID.TID 0000.0001) %MON ad_dynstat_advvel_sd         =   2.8229322940451E-04
(PID.TID 0000.0001) %MON ad_dynstat_advvel_del2       =   2.1431152718640E-07
(PID.TID 0000.0001) %MON ad_dynstat_adwvel_max        =   5.2252204268984E-04
(PID.TID 0000.0001) %MON ad_dynstat_adwvel_min        =  -1.3604737343562E-03
(PID.TID 0000.0001) %MON ad_dynstat_adwvel_mean       =  -7.8174818651242E-06
(PID.TID 0000.0001) %MON ad_dynstat_adwvel_sd         =   5.9471078128167E-05
(PID.TID 0000.0001) %MON ad_dynstat_adwvel_del2       =   2.7646293446131E-07
(PID.TID 0000.0001) %MON ad_dynstat_adtheta_max       =  -6.3685789176283E-01
(PID.TID 0000.0001) %MON ad_dynstat_adtheta_min       =  -7.0525617482171E+00
(PID.TID 0000.0001) %MON ad_dynstat_adtheta_mean      =  -3.8271214350273E+00
(PID.TID 0000.0001) %MON ad_dynstat_adtheta_sd        =   8.0260498899861E-02
(PID.TID 0000.0001) %MON ad_dynstat_adtheta_del2      =   3.8628170306746E-04
(PID.TID 0000.0001) %MON ad_dynstat_adsalt_max        =   5.5154594520942E-03
(PID.TID 0000.0001) %MON ad_dynstat_adsalt_min        =  -2.1745235969795E-03
(PID.TID 0000.0001) %MON ad_dynstat_adsalt_mean       =   1.3859030172170E-04
(PID.TID 0000.0001) %MON ad_dynstat_adsalt_sd         =   6.8703096411261E-04
(PID.TID 0000.0001) %MON ad_dynstat_adsalt_del2       =   1.1725236538872E-06
(PID.TID 0000.0001) %MON ad_dynstat_adsst_max         =   0.0000000000000E+00
(PID.TID 0000.0001) %MON ad_dynstat_adsst_min         =   0.0000000000000E+00
(PID.TID 0000.0001) %MON ad_dynstat_adsst_mean        =   0.0000000000000E+00
(PID.TID 0000.0001) %MON ad_dynstat_adsst_sd          =   0.0000000000000E+00
(PID.TID 0000.0001) %MON ad_dynstat_adsst_del2        =   0.0000000000000E+00
(PID.TID 0000.0001) %MON ad_dynstat_adsss_max         =   0.0000000000000E+00
(PID.TID 0000.0001) %MON ad_dynstat_adsss_min         =   0.0000000000000E+00
(PID.TID 0000.0001) %MON ad_dynstat_adsss_mean        =   0.0000000000000E+00
(PID.TID 0000.0001) %MON ad_dynstat_adsss_sd          =   0.0000000000000E+00
(PID.TID 0000.0001) %MON ad_dynstat_adsss_del2        =   0.0000000000000E+00
(PID.TID 0000.0001) %MON ad_forcing_adqnet_max        =   0.0000000000000E+00
(PID.TID 0000.0001) %MON ad_forcing_adqnet_min        =   0.0000000000000E+00
(PID.TID 0000.0001) %MON ad_forcing_adqnet_mean       =   0.0000000000000E+00
(PID.TID 0000.0001) %MON ad_forcing_adqnet_sd         =   0.0000000000000E+00
(PID.TID 0000.0001) %MON ad_forcing_adqnet_del2       =   0.0000000000000E+00
(PID.TID 0000.0001) %MON ad_forcing_adempmr_max       =   0.0000000000000E+00
(PID.TID 0000.0001) %MON ad_forcing_adempmr_min       =   0.0000000000000E+00
(PID.TID 0000.0001) %MON ad_forcing_adempmr_mean      =   0.0000000000000E+00
(PID.TID 0000.0001) %MON ad_forcing_adempmr_sd        =   0.0000000000000E+00
(PID.TID 0000.0001) %MON ad_forcing_adempmr_del2      =   0.0000000000000E+00
(PID.TID 0000.0001) %MON ad_forcing_adfu_max          =   0.0000000000000E+00
(PID.TID 0000.0001) %MON ad_forcing_adfu_min          =   0.0000000000000E+00
(PID.TID 0000.0001) %MON ad_forcing_adfu_mean         =   0.0000000000000E+00
(PID.TID 0000.0001) %MON ad_forcing_adfu_sd           =   0.0000000000000E+00
(PID.TID 0000.0001) %MON ad_forcing_adfu_del2         =   0.0000000000000E+00
(PID.TID 0000.0001) %MON ad_forcing_adfv_max          =   0.0000000000000E+00
(PID.TID 0000.0001) %MON ad_forcing_adfv_min          =   0.0000000000000E+00
(PID.TID 0000.0001) %MON ad_forcing_adfv_mean         =   0.0000000000000E+00
(PID.TID 0000.0001) %MON ad_forcing_adfv_sd           =   0.0000000000000E+00
(PID.TID 0000.0001) %MON ad_forcing_adfv_del2         =   0.0000000000000E+00
(PID.TID 0000.0001) %MON ad_advcfl_aduvel_max         =   4.7738039888898E-04
(PID.TID 0000.0001) %MON ad_advcfl_advvel_max         =   1.9470738355998E-04
(PID.TID 0000.0001) %MON ad_advcfl_adwvel_max         =   8.1628424061370E-02
(PID.TID 0000.0001) %MON ad_advcfl_adW_hf_max         =   6.5210941159163E-01
(PID.TID 0000.0001) // =======================================================
(PID.TID 0000.0001) // End MONITOR dynamic field statistics
(PID.TID 0000.0001) // =======================================================
 ph-check entering grdchk_main 
 ph-check fcref =    369721.21927728393     
grad-res -------------------------------
 grad-res  proc    #    i    j    k   bi   bj iobc               fc ref           fc + eps           fc - eps
 grad-res  proc    #    i    j    k   bi   bj iobc             adj grad            fd grad         1 - fd/adj
 grad-res exact position met: 
 grad-res     048529   20   24   20    1    1
 ph-test icomp, ncvarcomp, ichknum        48529      100450           1
 ph-grd _loc: bi, bj, icomptest, ichknum            1           1           0           1
 ph-grd _loc: bi, bj, icomptest, ichknum            1           1           0           1
 ph-grd _loc: bi, bj, icomptest, ichknum            1           1           0           1
 ph-grd _loc: bi, bj, icomptest, ichknum            1           1           0           1
 ph-grd _loc: bi, bj, icomptest, ichknum            1           1           0           1
 ph-grd _loc: bi, bj, icomptest, ichknum            1           1           0           1
 ph-grd _loc: bi, bj, icomptest, ichknum            1           1           0           1
 ph-grd _loc: bi, bj, icomptest, ichknum            1           1        2989           1
 ph-grd _loc: bi, bj, icomptest, ichknum            1           1        6076           1
 ph-grd _loc: bi, bj, icomptest, ichknum            1           1        9261           1
 ph-grd _loc: bi, bj, icomptest, ichknum            1           1       12593           1
 ph-grd _loc: bi, bj, icomptest, ichknum            1           1       16023           1
 ph-grd _loc: bi, bj, icomptest, ichknum            1           1       19600           1
 ph-grd _loc: bi, bj, icomptest, ichknum            1           1       23275           1
 ph-grd _loc: bi, bj, icomptest, ichknum            1           1       27048           1
 ph-grd _loc: bi, bj, icomptest, ichknum            1           1       30968           1
 ph-grd _loc: bi, bj, icomptest, ichknum            1           1       34986           1
 ph-grd _loc: bi, bj, icomptest, ichknum            1           1       39151           1
 ph-grd _loc: bi, bj, icomptest, ichknum            1           1       43414           1
 ph-grd _loc: bi, bj, icomptest, ichknum            1           1       47775           1
 ph-grd -->hit<--           20          24          20           1
(PID.TID 0000.0001) INI_CG2D: CG2D normalisation factor =  1.0404366262810520E-03
(PID.TID 0000.0001) 
(PID.TID 0000.0001)  nRecords = 243 ; filePrec =  64 ; fileIter =      8640
(PID.TID 0000.0001)     nDims =   2 , dims:
(PID.TID 0000.0001)    1:  50   1  50
(PID.TID 0000.0001)    2: 100   1 100
(PID.TID 0000.0001)     nFlds =  11 , nFl3D =   8 , fields:
(PID.TID 0000.0001)  >Uvel    < >Vvel    < >Theta   < >Salt    < >GuNm1   < >GvNm1   < >GtNm1   < >GsNm1   < >EtaN    < >dEtaHdt < >EtaH    <
(PID.TID 0000.0001)   nTimRec =   0 , timeList:
(PID.TID 0000.0001) READ_MFLDS_3D_RL: read field: "Uvel    ", #   1 in fldList, rec=   1
(PID.TID 0000.0001) READ_MFLDS_3D_RL: read field: "Vvel    ", #   2 in fldList, rec=   2
(PID.TID 0000.0001) READ_MFLDS_3D_RL: read field: "Theta   ", #   3 in fldList, rec=   3
(PID.TID 0000.0001) READ_MFLDS_3D_RL: read field: "Salt    ", #   4 in fldList, rec=   4
(PID.TID 0000.0001) READ_MFLDS_3D_RL: read field: "GuNm1   ", #   5 in fldList, rec=   5
(PID.TID 0000.0001) READ_MFLDS_3D_RL: read field: "GvNm1   ", #   6 in fldList, rec=   6
(PID.TID 0000.0001) READ_MFLDS_3D_RL: read field: "GtNm1   ", #   7 in fldList, rec=   7
(PID.TID 0000.0001) READ_MFLDS_3D_RL: read field: "GsNm1   ", #   8 in fldList, rec=   8
(PID.TID 0000.0001) READ_MFLDS_3D_RL: read field: "EtaN    ", #   9 in fldList, rec= 241
(PID.TID 0000.0001) READ_MFLDS_3D_RL: read field: "dEtaHdt ", #  10 in fldList, rec= 242
(PID.TID 0000.0001) READ_MFLDS_3D_RL: read field: "EtaH    ", #  11 in fldList, rec= 243
(PID.TID 0000.0001) READ_MFLDS_CHECK: - normal end ; reset MFLDS file-name: pickup.0000008640
(PID.TID 0000.0001) // =======================================================
(PID.TID 0000.0001) // Model current state
(PID.TID 0000.0001) // =======================================================
(PID.TID 0000.0001) 
(PID.TID 0000.0001) SOLVE_FOR_PRESSURE: putPmEinXvector =    F
 cg2d: Sum(rhs),rhsMax =   7.04913205714849E-13  5.97849185308842E-02
 cg2d: Sum(rhs),rhsMax =   7.21237278884443E-13  5.85466138247371E-02
 cg2d: Sum(rhs),rhsMax =   7.21642743391898E-13  5.84695841456163E-02
 cg2d: Sum(rhs),rhsMax =   7.14561249797255E-13  5.84526908195175E-02
 cg2d: Sum(rhs),rhsMax =   7.23048303088308E-13  5.84006606969310E-02
 cg2d: Sum(rhs),rhsMax =   7.19017822169675E-13  5.83965557562285E-02
 cg2d: Sum(rhs),rhsMax =   7.19798325761120E-13  5.84579955018471E-02
 cg2d: Sum(rhs),rhsMax =   7.16792097411097E-13  5.85308743056153E-02
 cg2d: Sum(rhs),rhsMax =   7.18429172811332E-13  5.86156101057228E-02
 cg2d: Sum(rhs),rhsMax =   7.13300905429322E-13  5.87104341934217E-02
(PID.TID 0000.0001) Did not write pickup because writePickupAtEnd = FALSE
 --> objf_shelfice(bi,bj) =  0.000000000000000D+00
 --> objf_shifwflx(bi,bj) =  0.000000000000000D+00
 --> objf_test(bi,bj)   =  0.369721181095141D+06
 --> objf_tracer(bi,bj) =  0.000000000000000D+00
 --> objf_atl(bi,bj)    =  0.000000000000000D+00
  local fc =  0.369721181095141D+06
 global fc =  0.369721181095141D+06
 ph-check fcpertplus =    369721.18109514087     
 ph-check fcpertminus =    369721.21927728393     
(PID.TID 0000.0001) INI_CG2D: CG2D normalisation factor =  1.0404366262810520E-03
(PID.TID 0000.0001) 
(PID.TID 0000.0001)  nRecords = 243 ; filePrec =  64 ; fileIter =      8640
(PID.TID 0000.0001)     nDims =   2 , dims:
(PID.TID 0000.0001)    1:  50   1  50
(PID.TID 0000.0001)    2: 100   1 100
(PID.TID 0000.0001)     nFlds =  11 , nFl3D =   8 , fields:
(PID.TID 0000.0001)  >Uvel    < >Vvel    < >Theta   < >Salt    < >GuNm1   < >GvNm1   < >GtNm1   < >GsNm1   < >EtaN    < >dEtaHdt < >EtaH    <
(PID.TID 0000.0001)   nTimRec =   0 , timeList:
(PID.TID 0000.0001) READ_MFLDS_3D_RL: read field: "Uvel    ", #   1 in fldList, rec=   1
(PID.TID 0000.0001) READ_MFLDS_3D_RL: read field: "Vvel    ", #   2 in fldList, rec=   2
(PID.TID 0000.0001) READ_MFLDS_3D_RL: read field: "Theta   ", #   3 in fldList, rec=   3
(PID.TID 0000.0001) READ_MFLDS_3D_RL: read field: "Salt    ", #   4 in fldList, rec=   4
(PID.TID 0000.0001) READ_MFLDS_3D_RL: read field: "GuNm1   ", #   5 in fldList, rec=   5
(PID.TID 0000.0001) READ_MFLDS_3D_RL: read field: "GvNm1   ", #   6 in fldList, rec=   6
(PID.TID 0000.0001) READ_MFLDS_3D_RL: read field: "GtNm1   ", #   7 in fldList, rec=   7
(PID.TID 0000.0001) READ_MFLDS_3D_RL: read field: "GsNm1   ", #   8 in fldList, rec=   8
(PID.TID 0000.0001) READ_MFLDS_3D_RL: read field: "EtaN    ", #   9 in fldList, rec= 241
(PID.TID 0000.0001) READ_MFLDS_3D_RL: read field: "dEtaHdt ", #  10 in fldList, rec= 242
(PID.TID 0000.0001) READ_MFLDS_3D_RL: read field: "EtaH    ", #  11 in fldList, rec= 243
(PID.TID 0000.0001) READ_MFLDS_CHECK: - normal end ; reset MFLDS file-name: pickup.0000008640
(PID.TID 0000.0001) // =======================================================
(PID.TID 0000.0001) // Model current state
(PID.TID 0000.0001) // =======================================================
(PID.TID 0000.0001) 
(PID.TID 0000.0001) SOLVE_FOR_PRESSURE: putPmEinXvector =    F
 cg2d: Sum(rhs),rhsMax =   7.04913205714849E-13  5.97849185308842E-02
 cg2d: Sum(rhs),rhsMax =   7.14551763028246E-13  5.85466150272835E-02
 cg2d: Sum(rhs),rhsMax =   7.14574721009248E-13  5.84695848765133E-02
 cg2d: Sum(rhs),rhsMax =   7.21823398578889E-13  5.84526904774237E-02
 cg2d: Sum(rhs),rhsMax =   7.19226707270731E-13  5.84006598728634E-02
 cg2d: Sum(rhs),rhsMax =   7.17837478369544E-13  5.83965552304284E-02
 cg2d: Sum(rhs),rhsMax =   7.23144078797720E-13  5.84579949963649E-02
 cg2d: Sum(rhs),rhsMax =   7.18594800363289E-13  5.85308737311277E-02
 cg2d: Sum(rhs),rhsMax =   7.15496737124641E-13  5.86156094480245E-02
 cg2d: Sum(rhs),rhsMax =   7.15269094902484E-13  5.87104335138204E-02
(PID.TID 0000.0001) Did not write pickup because writePickupAtEnd = FALSE
 --> objf_shelfice(bi,bj) =  0.000000000000000D+00
 --> objf_shifwflx(bi,bj) =  0.000000000000000D+00
 --> objf_test(bi,bj)   =  0.369721257621589D+06
 --> objf_tracer(bi,bj) =  0.000000000000000D+00
 --> objf_atl(bi,bj)    =  0.000000000000000D+00
  local fc =  0.369721257621589D+06
 global fc =  0.369721257621589D+06
grad-res -------------------------------
 grad-res     0    1   20   24   20    1    1    1   3.69721219277E+05  3.69721181095E+05  3.69721257622E+05
 grad-res     0    1    148529    0    1    1    1  -3.82632251888E+00 -3.82632242981E+00  2.32772003894E-08
(PID.TID 0000.0001)  ADM  ref_cost_function      =  3.69721219277284E+05
(PID.TID 0000.0001)  ADM  adjoint_gradient       = -3.82632251887952E+00
(PID.TID 0000.0001)  ADM  finite-diff_grad       = -3.82632242981344E+00
 ph-grd  ierr ---------------------------
 ph-grd  ierr =            0 , icomp =        48529 , ichknum =            1
 ph-test icomp, ncvarcomp, ichknum        48530      100450           2
 ph-grd _loc: bi, bj, icomptest, ichknum            1           1       48529           2
 ph-grd -->hit<--           21          24          20           1
(PID.TID 0000.0001) INI_CG2D: CG2D normalisation factor =  1.0404366262810520E-03
(PID.TID 0000.0001) 
(PID.TID 0000.0001)  nRecords = 243 ; filePrec =  64 ; fileIter =      8640
(PID.TID 0000.0001)     nDims =   2 , dims:
(PID.TID 0000.0001)    1:  50   1  50
(PID.TID 0000.0001)    2: 100   1 100
(PID.TID 0000.0001)     nFlds =  11 , nFl3D =   8 , fields:
(PID.TID 0000.0001)  >Uvel    < >Vvel    < >Theta   < >Salt    < >GuNm1   < >GvNm1   < >GtNm1   < >GsNm1   < >EtaN    < >dEtaHdt < >EtaH    <
(PID.TID 0000.0001)   nTimRec =   0 , timeList:
(PID.TID 0000.0001) READ_MFLDS_3D_RL: read field: "Uvel    ", #   1 in fldList, rec=   1
(PID.TID 0000.0001) READ_MFLDS_3D_RL: read field: "Vvel    ", #   2 in fldList, rec=   2
(PID.TID 0000.0001) READ_MFLDS_3D_RL: read field: "Theta   ", #   3 in fldList, rec=   3
(PID.TID 0000.0001) READ_MFLDS_3D_RL: read field: "Salt    ", #   4 in fldList, rec=   4
(PID.TID 0000.0001) READ_MFLDS_3D_RL: read field: "GuNm1   ", #   5 in fldList, rec=   5
(PID.TID 0000.0001) READ_MFLDS_3D_RL: read field: "GvNm1   ", #   6 in fldList, rec=   6
(PID.TID 0000.0001) READ_MFLDS_3D_RL: read field: "GtNm1   ", #   7 in fldList, rec=   7
(PID.TID 0000.0001) READ_MFLDS_3D_RL: read field: "GsNm1   ", #   8 in fldList, rec=   8
(PID.TID 0000.0001) READ_MFLDS_3D_RL: read field: "EtaN    ", #   9 in fldList, rec= 241
(PID.TID 0000.0001) READ_MFLDS_3D_RL: read field: "dEtaHdt ", #  10 in fldList, rec= 242
(PID.TID 0000.0001) READ_MFLDS_3D_RL: read field: "EtaH    ", #  11 in fldList, rec= 243
(PID.TID 0000.0001) READ_MFLDS_CHECK: - normal end ; reset MFLDS file-name: pickup.0000008640
(PID.TID 0000.0001) // =======================================================
(PID.TID 0000.0001) // Model current state
(PID.TID 0000.0001) // =======================================================
(PID.TID 0000.0001) 
(PID.TID 0000.0001) SOLVE_FOR_PRESSURE: putPmEinXvector =    F
 cg2d: Sum(rhs),rhsMax =   7.04913205714849E-13  5.97849185308842E-02
 cg2d: Sum(rhs),rhsMax =   7.12462478336812E-13  5.85466138588592E-02
 cg2d: Sum(rhs),rhsMax =   7.18349397977810E-13  5.84695841261182E-02
 cg2d: Sum(rhs),rhsMax =   7.19345996614759E-13  5.84526907472208E-02
 cg2d: Sum(rhs),rhsMax =   7.20750065533182E-13  5.84006606007235E-02
 cg2d: Sum(rhs),rhsMax =   7.13663503293382E-13  5.83965556309151E-02
 cg2d: Sum(rhs),rhsMax =   7.16742556148078E-13  5.84579953464713E-02
 cg2d: Sum(rhs),rhsMax =   7.15099169928870E-13  5.85308741169165E-02
 cg2d: Sum(rhs),rhsMax =   7.16897197682709E-13  5.86156098839229E-02
 cg2d: Sum(rhs),rhsMax =   7.10271902057413E-13  5.87104339403522E-02
(PID.TID 0000.0001) Did not write pickup because writePickupAtEnd = FALSE
 --> objf_shelfice(bi,bj) =  0.000000000000000D+00
 --> objf_shifwflx(bi,bj) =  0.000000000000000D+00
 --> objf_test(bi,bj)   =  0.369721181100572D+06
 --> objf_tracer(bi,bj) =  0.000000000000000D+00
 --> objf_atl(bi,bj)    =  0.000000000000000D+00
  local fc =  0.369721181100572D+06
 global fc =  0.369721181100572D+06
 ph-check fcpertplus =    369721.18110057194     
 ph-check fcpertminus =    369721.21927728393     
(PID.TID 0000.0001) INI_CG2D: CG2D normalisation factor =  1.0404366262810520E-03
(PID.TID 0000.0001) 
(PID.TID 0000.0001)  nRecords = 243 ; filePrec =  64 ; fileIter =      8640
(PID.TID 0000.0001)     nDims =   2 , dims:
(PID.TID 0000.0001)    1:  50   1  50
(PID.TID 0000.0001)    2: 100   1 100
(PID.TID 0000.0001)     nFlds =  11 , nFl3D =   8 , fields:
(PID.TID 0000.0001)  >Uvel    < >Vvel    < >Theta   < >Salt    < >GuNm1   < >GvNm1   < >GtNm1   < >GsNm1   < >EtaN    < >dEtaHdt < >EtaH    <
(PID.TID 0000.0001)   nTimRec =   0 , timeList:
(PID.TID 0000.0001) READ_MFLDS_3D_RL: read field: "Uvel    ", #   1 in fldList, rec=   1
(PID.TID 0000.0001) READ_MFLDS_3D_RL: read field: "Vvel    ", #   2 in fldList, rec=   2
(PID.TID 0000.0001) READ_MFLDS_3D_RL: read field: "Theta   ", #   3 in fldList, rec=   3
(PID.TID 0000.0001) READ_MFLDS_3D_RL: read field: "Salt    ", #   4 in fldList, rec=   4
(PID.TID 0000.0001) READ_MFLDS_3D_RL: read field: "GuNm1   ", #   5 in fldList, rec=   5
(PID.TID 0000.0001) READ_MFLDS_3D_RL: read field: "GvNm1   ", #   6 in fldList, rec=   6
(PID.TID 0000.0001) READ_MFLDS_3D_RL: read field: "GtNm1   ", #   7 in fldList, rec=   7
(PID.TID 0000.0001) READ_MFLDS_3D_RL: read field: "GsNm1   ", #   8 in fldList, rec=   8
(PID.TID 0000.0001) READ_MFLDS_3D_RL: read field: "EtaN    ", #   9 in fldList, rec= 241
(PID.TID 0000.0001) READ_MFLDS_3D_RL: read field: "dEtaHdt ", #  10 in fldList, rec= 242
(PID.TID 0000.0001) READ_MFLDS_3D_RL: read field: "EtaH    ", #  11 in fldList, rec= 243
(PID.TID 0000.0001) READ_MFLDS_CHECK: - normal end ; reset MFLDS file-name: pickup.0000008640
(PID.TID 0000.0001) // =======================================================
(PID.TID 0000.0001) // Model current state
(PID.TID 0000.0001) // =======================================================
(PID.TID 0000.0001) 
(PID.TID 0000.0001) SOLVE_FOR_PRESSURE: putPmEinXvector =    F
 cg2d: Sum(rhs),rhsMax =   7.04913205714849E-13  5.97849185308842E-02
 cg2d: Sum(rhs),rhsMax =   7.18382005358148E-13  5.85466149932008E-02
 cg2d: Sum(rhs),rhsMax =   7.14939338199855E-13  5.84695848957471E-02
 cg2d: Sum(rhs),rhsMax =   7.16130822177308E-13  5.84526905493097E-02
 cg2d: Sum(rhs),rhsMax =   7.20730658314295E-13  5.84006599689752E-02
 cg2d: Sum(rhs),rhsMax =   7.15011600274651E-13  5.83965553556073E-02
 cg2d: Sum(rhs),rhsMax =   7.21026360904313E-13  5.84579951515441E-02
 cg2d: Sum(rhs),rhsMax =   7.14361397455548E-13  5.85308739191309E-02
 cg2d: Sum(rhs),rhsMax =   7.13875789231722E-13  5.86156096692289E-02
 cg2d: Sum(rhs),rhsMax =   7.16011149974388E-13  5.87104337660661E-02
(PID.TID 0000.0001) Did not write pickup because writePickupAtEnd = FALSE
 --> objf_shelfice(bi,bj) =  0.000000000000000D+00
 --> objf_shifwflx(bi,bj) =  0.000000000000000D+00
 --> objf_test(bi,bj)   =  0.369721257616158D+06
 --> objf_tracer(bi,bj) =  0.000000000000000D+00
 --> objf_atl(bi,bj)    =  0.000000000000000D+00
  local fc =  0.369721257616158D+06
 global fc =  0.369721257616158D+06
grad-res -------------------------------
 grad-res     0    2   21   24   20    1    1    1   3.69721219277E+05  3.69721181101E+05  3.69721257616E+05
 grad-res     0    2    248530    0    1    1    1  -3.82577936989E+00 -3.82577932032E+00  1.29560528972E-08
(PID.TID 0000.0001)  ADM  ref_cost_function      =  3.69721219277284E+05
(PID.TID 0000.0001)  ADM  adjoint_gradient       = -3.82577936988991E+00
(PID.TID 0000.0001)  ADM  finite-diff_grad       = -3.82577932032291E+00
 ph-grd  ierr ---------------------------
 ph-grd  ierr =            0 , icomp =        48530 , ichknum =            2
 ph-test icomp, ncvarcomp, ichknum        48531      100450           3
 ph-grd _loc: bi, bj, icomptest, ichknum            1           1       48530           3
 ph-grd -->hit<--           22          24          20           1
(PID.TID 0000.0001) INI_CG2D: CG2D normalisation factor =  1.0404366262810520E-03
(PID.TID 0000.0001) 
(PID.TID 0000.0001)  nRecords = 243 ; filePrec =  64 ; fileIter =      8640
(PID.TID 0000.0001)     nDims =   2 , dims:
(PID.TID 0000.0001)    1:  50   1  50
(PID.TID 0000.0001)    2: 100   1 100
(PID.TID 0000.0001)     nFlds =  11 , nFl3D =   8 , fields:
(PID.TID 0000.0001)  >Uvel    < >Vvel    < >Theta   < >Salt    < >GuNm1   < >GvNm1   < >GtNm1   < >GsNm1   < >EtaN    < >dEtaHdt < >EtaH    <
(PID.TID 0000.0001)   nTimRec =   0 , timeList:
(PID.TID 0000.0001) READ_MFLDS_3D_RL: read field: "Uvel    ", #   1 in fldList, rec=   1
(PID.TID 0000.0001) READ_MFLDS_3D_RL: read field: "Vvel    ", #   2 in fldList, rec=   2
(PID.TID 0000.0001) READ_MFLDS_3D_RL: read field: "Theta   ", #   3 in fldList, rec=   3
(PID.TID 0000.0001) READ_MFLDS_3D_RL: read field: "Salt    ", #   4 in fldList, rec=   4
(PID.TID 0000.0001) READ_MFLDS_3D_RL: read field: "GuNm1   ", #   5 in fldList, rec=   5
(PID.TID 0000.0001) READ_MFLDS_3D_RL: read field: "GvNm1   ", #   6 in fldList, rec=   6
(PID.TID 0000.0001) READ_MFLDS_3D_RL: read field: "GtNm1   ", #   7 in fldList, rec=   7
(PID.TID 0000.0001) READ_MFLDS_3D_RL: read field: "GsNm1   ", #   8 in fldList, rec=   8
(PID.TID 0000.0001) READ_MFLDS_3D_RL: read field: "EtaN    ", #   9 in fldList, rec= 241
(PID.TID 0000.0001) READ_MFLDS_3D_RL: read field: "dEtaHdt ", #  10 in fldList, rec= 242
(PID.TID 0000.0001) READ_MFLDS_3D_RL: read field: "EtaH    ", #  11 in fldList, rec= 243
(PID.TID 0000.0001) READ_MFLDS_CHECK: - normal end ; reset MFLDS file-name: pickup.0000008640
(PID.TID 0000.0001) // =======================================================
(PID.TID 0000.0001) // Model current state
(PID.TID 0000.0001) // =======================================================
(PID.TID 0000.0001) 
(PID.TID 0000.0001) SOLVE_FOR_PRESSURE: putPmEinXvector =    F
 cg2d: Sum(rhs),rhsMax =   7.04913205714849E-13  5.97849185308842E-02
 cg2d: Sum(rhs),rhsMax =   7.15132434606774E-13  5.85466138918760E-02
 cg2d: Sum(rhs),rhsMax =   7.15948649107276E-13  5.84695841110741E-02
 cg2d: Sum(rhs),rhsMax =   7.18975470522312E-13  5.84526906822764E-02
 cg2d: Sum(rhs),rhsMax =   7.18616301447622E-13  5.84006605135189E-02
 cg2d: Sum(rhs),rhsMax =   7.23211787223392E-13  5.83965555218452E-02
 cg2d: Sum(rhs),rhsMax =   7.12442976250234E-13  5.84579952115728E-02
 cg2d: Sum(rhs),rhsMax =   7.20420407086374E-13  5.85308739530486E-02
 cg2d: Sum(rhs),rhsMax =   7.14530018421940E-13  5.86156096920161E-02
 cg2d: Sum(rhs),rhsMax =   7.14654582663647E-13  5.87104337214036E-02
(PID.TID 0000.0001) Did not write pickup because writePickupAtEnd = FALSE
 --> objf_shelfice(bi,bj) =  0.000000000000000D+00
 --> objf_shifwflx(bi,bj) =  0.000000000000000D+00
 --> objf_test(bi,bj)   =  0.369721181104170D+06
 --> objf_tracer(bi,bj) =  0.000000000000000D+00
 --> objf_atl(bi,bj)    =  0.000000000000000D+00
  local fc =  0.369721181104170D+06
 global fc =  0.369721181104170D+06
 ph-check fcpertplus =    369721.18110417045     
 ph-check fcpertminus =    369721.21927728393     
(PID.TID 0000.0001) INI_CG2D: CG2D normalisation factor =  1.0404366262810520E-03
(PID.TID 0000.0001) 
(PID.TID 0000.0001)  nRecords = 243 ; filePrec =  64 ; fileIter =      8640
(PID.TID 0000.0001)     nDims =   2 , dims:
(PID.TID 0000.0001)    1:  50   1  50
(PID.TID 0000.0001)    2: 100   1 100
(PID.TID 0000.0001)     nFlds =  11 , nFl3D =   8 , fields:
(PID.TID 0000.0001)  >Uvel    < >Vvel    < >Theta   < >Salt    < >GuNm1   < >GvNm1   < >GtNm1   < >GsNm1   < >EtaN    < >dEtaHdt < >EtaH    <
(PID.TID 0000.0001)   nTimRec =   0 , timeList:
(PID.TID 0000.0001) READ_MFLDS_3D_RL: read field: "Uvel    ", #   1 in fldList, rec=   1
(PID.TID 0000.0001) READ_MFLDS_3D_RL: read field: "Vvel    ", #   2 in fldList, rec=   2
(PID.TID 0000.0001) READ_MFLDS_3D_RL: read field: "Theta   ", #   3 in fldList, rec=   3
(PID.TID 0000.0001) READ_MFLDS_3D_RL: read field: "Salt    ", #   4 in fldList, rec=   4
(PID.TID 0000.0001) READ_MFLDS_3D_RL: read field: "GuNm1   ", #   5 in fldList, rec=   5
(PID.TID 0000.0001) READ_MFLDS_3D_RL: read field: "GvNm1   ", #   6 in fldList, rec=   6
(PID.TID 0000.0001) READ_MFLDS_3D_RL: read field: "GtNm1   ", #   7 in fldList, rec=   7
(PID.TID 0000.0001) READ_MFLDS_3D_RL: read field: "GsNm1   ", #   8 in fldList, rec=   8
(PID.TID 0000.0001) READ_MFLDS_3D_RL: read field: "EtaN    ", #   9 in fldList, rec= 241
(PID.TID 0000.0001) READ_MFLDS_3D_RL: read field: "dEtaHdt ", #  10 in fldList, rec= 242
(PID.TID 0000.0001) READ_MFLDS_3D_RL: read field: "EtaH    ", #  11 in fldList, rec= 243
(PID.TID 0000.0001) READ_MFLDS_CHECK: - normal end ; reset MFLDS file-name: pickup.0000008640
(PID.TID 0000.0001) // =======================================================
(PID.TID 0000.0001) // Model current state
(PID.TID 0000.0001) // =======================================================
(PID.TID 0000.0001) 
(PID.TID 0000.0001) SOLVE_FOR_PRESSURE: putPmEinXvector =    F
 cg2d: Sum(rhs),rhsMax =   7.04913205714849E-13  5.97849185308842E-02
 cg2d: Sum(rhs),rhsMax =   7.14921232023574E-13  5.85466149602601E-02
 cg2d: Sum(rhs),rhsMax =   7.21069281757816E-13  5.84695849108773E-02
 cg2d: Sum(rhs),rhsMax =   7.19175017932158E-13  5.84526906141579E-02
 cg2d: Sum(rhs),rhsMax =   7.16300635342573E-13  5.84006600561746E-02
 cg2d: Sum(rhs),rhsMax =   7.19251521947954E-13  5.83965554642854E-02
 cg2d: Sum(rhs),rhsMax =   7.13299645044296E-13  5.84579952858736E-02
 cg2d: Sum(rhs),rhsMax =   7.19158741347044E-13  5.85308740823509E-02
 cg2d: Sum(rhs),rhsMax =   7.14327551713041E-13  5.86156098607107E-02
 cg2d: Sum(rhs),rhsMax =   7.11867485125211E-13  5.87104339841977E-02
(PID.TID 0000.0001) Did not write pickup because writePickupAtEnd = FALSE
 --> objf_shelfice(bi,bj) =  0.000000000000000D+00
 --> objf_shifwflx(bi,bj) =  0.000000000000000D+00
 --> objf_test(bi,bj)   =  0.369721257612560D+06
 --> objf_tracer(bi,bj) =  0.000000000000000D+00
 --> objf_atl(bi,bj)    =  0.000000000000000D+00
  local fc =  0.369721257612560D+06
 global fc =  0.369721257612560D+06
grad-res -------------------------------
 grad-res     0    3   22   24   20    1    1    1   3.69721219277E+05  3.69721181104E+05  3.69721257613E+05
 grad-res     0    3    348531    0    1    1    1  -3.82541946043E+00 -3.82541948056E+00 -5.26347321284E-09
(PID.TID 0000.0001)  ADM  ref_cost_function      =  3.69721219277284E+05
(PID.TID 0000.0001)  ADM  adjoint_gradient       = -3.82541946042815E+00
(PID.TID 0000.0001)  ADM  finite-diff_grad       = -3.82541948056314E+00
 ph-grd  ierr ---------------------------
 ph-grd  ierr =            0 , icomp =        48531 , ichknum =            3
 ph-test icomp, ncvarcomp, ichknum        48532      100450           4
 ph-grd _loc: bi, bj, icomptest, ichknum            1           1       48531           4
 ph-grd -->hit<--           23          24          20           1
(PID.TID 0000.0001) INI_CG2D: CG2D normalisation factor =  1.0404366262810520E-03
(PID.TID 0000.0001) 
(PID.TID 0000.0001)  nRecords = 243 ; filePrec =  64 ; fileIter =      8640
(PID.TID 0000.0001)     nDims =   2 , dims:
(PID.TID 0000.0001)    1:  50   1  50
(PID.TID 0000.0001)    2: 100   1 100
(PID.TID 0000.0001)     nFlds =  11 , nFl3D =   8 , fields:
(PID.TID 0000.0001)  >Uvel    < >Vvel    < >Theta   < >Salt    < >GuNm1   < >GvNm1   < >GtNm1   < >GsNm1   < >EtaN    < >dEtaHdt < >EtaH    <
(PID.TID 0000.0001)   nTimRec =   0 , timeList:
(PID.TID 0000.0001) READ_MFLDS_3D_RL: read field: "Uvel    ", #   1 in fldList, rec=   1
(PID.TID 0000.0001) READ_MFLDS_3D_RL: read field: "Vvel    ", #   2 in fldList, rec=   2
(PID.TID 0000.0001) READ_MFLDS_3D_RL: read field: "Theta   ", #   3 in fldList, rec=   3
(PID.TID 0000.0001) READ_MFLDS_3D_RL: read field: "Salt    ", #   4 in fldList, rec=   4
(PID.TID 0000.0001) READ_MFLDS_3D_RL: read field: "GuNm1   ", #   5 in fldList, rec=   5
(PID.TID 0000.0001) READ_MFLDS_3D_RL: read field: "GvNm1   ", #   6 in fldList, rec=   6
(PID.TID 0000.0001) READ_MFLDS_3D_RL: read field: "GtNm1   ", #   7 in fldList, rec=   7
(PID.TID 0000.0001) READ_MFLDS_3D_RL: read field: "GsNm1   ", #   8 in fldList, rec=   8
(PID.TID 0000.0001) READ_MFLDS_3D_RL: read field: "EtaN    ", #   9 in fldList, rec= 241
(PID.TID 0000.0001) READ_MFLDS_3D_RL: read field: "dEtaHdt ", #  10 in fldList, rec= 242
(PID.TID 0000.0001) READ_MFLDS_3D_RL: read field: "EtaH    ", #  11 in fldList, rec= 243
(PID.TID 0000.0001) READ_MFLDS_CHECK: - normal end ; reset MFLDS file-name: pickup.0000008640
(PID.TID 0000.0001) // =======================================================
(PID.TID 0000.0001) // Model current state
(PID.TID 0000.0001) // =======================================================
(PID.TID 0000.0001) 
(PID.TID 0000.0001) SOLVE_FOR_PRESSURE: putPmEinXvector =    F
 cg2d: Sum(rhs),rhsMax =   7.04913205714849E-13  5.97849185308842E-02
 cg2d: Sum(rhs),rhsMax =   7.14001747266144E-13  5.85466139234768E-02
 cg2d: Sum(rhs),rhsMax =   7.16421361254480E-13  5.84695840994756E-02
 cg2d: Sum(rhs),rhsMax =   7.17662447481324E-13  5.84526906239797E-02
 cg2d: Sum(rhs),rhsMax =   7.19040034761684E-13  5.84006604346406E-02
 cg2d: Sum(rhs),rhsMax =   7.18439874649104E-13  5.83965554270842E-02
 cg2d: Sum(rhs),rhsMax =   7.15377193247213E-13  5.84579950947772E-02
 cg2d: Sum(rhs),rhsMax =   7.22238817417540E-13  5.85308738113409E-02
 cg2d: Sum(rhs),rhsMax =   7.14224380558967E-13  5.86156095259386E-02
 cg2d: Sum(rhs),rhsMax =   7.12809870265403E-13  5.87104335324595E-02
(PID.TID 0000.0001) Did not write pickup because writePickupAtEnd = FALSE
 --> objf_shelfice(bi,bj) =  0.000000000000000D+00
 --> objf_shifwflx(bi,bj) =  0.000000000000000D+00
 --> objf_test(bi,bj)   =  0.369721181106519D+06
 --> objf_tracer(bi,bj) =  0.000000000000000D+00
 --> objf_atl(bi,bj)    =  0.000000000000000D+00
  local fc =  0.369721181106519D+06
 global fc =  0.369721181106519D+06
 ph-check fcpertplus =    369721.18110651878     
 ph-check fcpertminus =    369721.21927728393     
(PID.TID 0000.0001) INI_CG2D: CG2D normalisation factor =  1.0404366262810520E-03
(PID.TID 0000.0001) 
(PID.TID 0000.0001)  nRecords = 243 ; filePrec =  64 ; fileIter =      8640
(PID.TID 0000.0001)     nDims =   2 , dims:
(PID.TID 0000.0001)    1:  50   1  50
(PID.TID 0000.0001)    2: 100   1 100
(PID.TID 0000.0001)     nFlds =  11 , nFl3D =   8 , fields:
(PID.TID 0000.0001)  >Uvel    < >Vvel    < >Theta   < >Salt    < >GuNm1   < >GvNm1   < >GtNm1   < >GsNm1   < >EtaN    < >dEtaHdt < >EtaH    <
(PID.TID 0000.0001)   nTimRec =   0 , timeList:
(PID.TID 0000.0001) READ_MFLDS_3D_RL: read field: "Uvel    ", #   1 in fldList, rec=   1
(PID.TID 0000.0001) READ_MFLDS_3D_RL: read field: "Vvel    ", #   2 in fldList, rec=   2
(PID.TID 0000.0001) READ_MFLDS_3D_RL: read field: "Theta   ", #   3 in fldList, rec=   3
(PID.TID 0000.0001) READ_MFLDS_3D_RL: read field: "Salt    ", #   4 in fldList, rec=   4
(PID.TID 0000.0001) READ_MFLDS_3D_RL: read field: "GuNm1   ", #   5 in fldList, rec=   5
(PID.TID 0000.0001) READ_MFLDS_3D_RL: read field: "GvNm1   ", #   6 in fldList, rec=   6
(PID.TID 0000.0001) READ_MFLDS_3D_RL: read field: "GtNm1   ", #   7 in fldList, rec=   7
(PID.TID 0000.0001) READ_MFLDS_3D_RL: read field: "GsNm1   ", #   8 in fldList, rec=   8
(PID.TID 0000.0001) READ_MFLDS_3D_RL: read field: "EtaN    ", #   9 in fldList, rec= 241
(PID.TID 0000.0001) READ_MFLDS_3D_RL: read field: "dEtaHdt ", #  10 in fldList, rec= 242
(PID.TID 0000.0001) READ_MFLDS_3D_RL: read field: "EtaH    ", #  11 in fldList, rec= 243
(PID.TID 0000.0001) READ_MFLDS_CHECK: - normal end ; reset MFLDS file-name: pickup.0000008640
(PID.TID 0000.0001) // =======================================================
(PID.TID 0000.0001) // Model current state
(PID.TID 0000.0001) // =======================================================
(PID.TID 0000.0001) 
(PID.TID 0000.0001) SOLVE_FOR_PRESSURE: putPmEinXvector =    F
 cg2d: Sum(rhs),rhsMax =   7.04913205714849E-13  5.97849185308842E-02
 cg2d: Sum(rhs),rhsMax =   7.16633566724689E-13  5.85466149288427E-02
 cg2d: Sum(rhs),rhsMax =   7.16302776641864E-13  5.84695849224592E-02
 cg2d: Sum(rhs),rhsMax =   7.14677747320688E-13  5.84526906724911E-02
 cg2d: Sum(rhs),rhsMax =   7.15697547884128E-13  5.84006601347145E-02
 cg2d: Sum(rhs),rhsMax =   7.17390868389643E-13  5.83965555586920E-02
 cg2d: Sum(rhs),rhsMax =   7.17619784125836E-13  5.84579954024329E-02
 cg2d: Sum(rhs),rhsMax =   7.15878548660561E-13  5.85308742236888E-02
 cg2d: Sum(rhs),rhsMax =   7.16765141858100E-13  5.86156100263400E-02
 cg2d: Sum(rhs),rhsMax =   7.13520354725296E-13  5.87104341724781E-02
(PID.TID 0000.0001) Did not write pickup because writePickupAtEnd = FALSE
 --> objf_shelfice(bi,bj) =  0.000000000000000D+00
 --> objf_shifwflx(bi,bj) =  0.000000000000000D+00
 --> objf_test(bi,bj)   =  0.369721257610212D+06
 --> objf_tracer(bi,bj) =  0.000000000000000D+00
 --> objf_atl(bi,bj)    =  0.000000000000000D+00
  local fc =  0.369721257610212D+06
 global fc =  0.369721257610212D+06
grad-res -------------------------------
 grad-res     0    4   23   24   20    1    1    1   3.69721219277E+05  3.69721181107E+05  3.69721257610E+05
 grad-res     0    4    448532    0    1    1    1  -3.82518464795E+00 -3.82518467959E+00 -8.27030777195E-09
(PID.TID 0000.0001)  ADM  ref_cost_function      =  3.69721219277284E+05
(PID.TID 0000.0001)  ADM  adjoint_gradient       = -3.82518464795471E+00
(PID.TID 0000.0001)  ADM  finite-diff_grad       = -3.82518467959017E+00
 ph-grd  ierr ---------------------------
 ph-grd  ierr =            0 , icomp =        48532 , ichknum =            4
 ph-test icomp, ncvarcomp, ichknum        48533      100450           5
 ph-grd _loc: bi, bj, icomptest, ichknum            1           1       48532           5
 ph-grd -->hit<--           24          24          20           1
(PID.TID 0000.0001) INI_CG2D: CG2D normalisation factor =  1.0404366262810520E-03
(PID.TID 0000.0001) 
(PID.TID 0000.0001)  nRecords = 243 ; filePrec =  64 ; fileIter =      8640
(PID.TID 0000.0001)     nDims =   2 , dims:
(PID.TID 0000.0001)    1:  50   1  50
(PID.TID 0000.0001)    2: 100   1 100
(PID.TID 0000.0001)     nFlds =  11 , nFl3D =   8 , fields:
(PID.TID 0000.0001)  >Uvel    < >Vvel    < >Theta   < >Salt    < >GuNm1   < >GvNm1   < >GtNm1   < >GsNm1   < >EtaN    < >dEtaHdt < >EtaH    <
(PID.TID 0000.0001)   nTimRec =   0 , timeList:
(PID.TID 0000.0001) READ_MFLDS_3D_RL: read field: "Uvel    ", #   1 in fldList, rec=   1
(PID.TID 0000.0001) READ_MFLDS_3D_RL: read field: "Vvel    ", #   2 in fldList, rec=   2
(PID.TID 0000.0001) READ_MFLDS_3D_RL: read field: "Theta   ", #   3 in fldList, rec=   3
(PID.TID 0000.0001) READ_MFLDS_3D_RL: read field: "Salt    ", #   4 in fldList, rec=   4
(PID.TID 0000.0001) READ_MFLDS_3D_RL: read field: "GuNm1   ", #   5 in fldList, rec=   5
(PID.TID 0000.0001) READ_MFLDS_3D_RL: read field: "GvNm1   ", #   6 in fldList, rec=   6
(PID.TID 0000.0001) READ_MFLDS_3D_RL: read field: "GtNm1   ", #   7 in fldList, rec=   7
(PID.TID 0000.0001) READ_MFLDS_3D_RL: read field: "GsNm1   ", #   8 in fldList, rec=   8
(PID.TID 0000.0001) READ_MFLDS_3D_RL: read field: "EtaN    ", #   9 in fldList, rec= 241
(PID.TID 0000.0001) READ_MFLDS_3D_RL: read field: "dEtaHdt ", #  10 in fldList, rec= 242
(PID.TID 0000.0001) READ_MFLDS_3D_RL: read field: "EtaH    ", #  11 in fldList, rec= 243
(PID.TID 0000.0001) READ_MFLDS_CHECK: - normal end ; reset MFLDS file-name: pickup.0000008640
(PID.TID 0000.0001) // =======================================================
(PID.TID 0000.0001) // Model current state
(PID.TID 0000.0001) // =======================================================
(PID.TID 0000.0001) 
(PID.TID 0000.0001) SOLVE_FOR_PRESSURE: putPmEinXvector =    F
 cg2d: Sum(rhs),rhsMax =   7.04913205714849E-13  5.97849185308842E-02
 cg2d: Sum(rhs),rhsMax =   7.17313713852544E-13  5.85466139536621E-02
 cg2d: Sum(rhs),rhsMax =   7.18193110234647E-13  5.84695840910434E-02
 cg2d: Sum(rhs),rhsMax =   7.25408909373407E-13  5.84526905720753E-02
 cg2d: Sum(rhs),rhsMax =   7.20643976350605E-13  5.84006603633994E-02
 cg2d: Sum(rhs),rhsMax =   7.17307167981927E-13  5.83965553447665E-02
 cg2d: Sum(rhs),rhsMax =   7.20382480339128E-13  5.84579949936009E-02
 cg2d: Sum(rhs),rhsMax =   7.18366548700927E-13  5.85308736888026E-02
 cg2d: Sum(rhs),rhsMax =   7.14927205723435E-13  5.86156093818222E-02
 cg2d: Sum(rhs),rhsMax =   7.11030755486727E-13  5.87104333692648E-02
(PID.TID 0000.0001) Did not write pickup because writePickupAtEnd = FALSE
 --> objf_shelfice(bi,bj) =  0.000000000000000D+00
 --> objf_shifwflx(bi,bj) =  0.000000000000000D+00
 --> objf_test(bi,bj)   =  0.369721181108098D+06
 --> objf_tracer(bi,bj) =  0.000000000000000D+00
 --> objf_atl(bi,bj)    =  0.000000000000000D+00
  local fc =  0.369721181108098D+06
 global fc =  0.369721181108098D+06
 ph-check fcpertplus =    369721.18110809778     
 ph-check fcpertminus =    369721.21927728393     
(PID.TID 0000.0001) INI_CG2D: CG2D normalisation factor =  1.0404366262810520E-03
(PID.TID 0000.0001) 
(PID.TID 0000.0001)  nRecords = 243 ; filePrec =  64 ; fileIter =      8640
(PID.TID 0000.0001)     nDims =   2 , dims:
(PID.TID 0000.0001)    1:  50   1  50
(PID.TID 0000.0001)    2: 100   1 100
(PID.TID 0000.0001)     nFlds =  11 , nFl3D =   8 , fields:
(PID.TID 0000.0001)  >Uvel    < >Vvel    < >Theta   < >Salt    < >GuNm1   < >GvNm1   < >GtNm1   < >GsNm1   < >EtaN    < >dEtaHdt < >EtaH    <
(PID.TID 0000.0001)   nTimRec =   0 , timeList:
(PID.TID 0000.0001) READ_MFLDS_3D_RL: read field: "Uvel    ", #   1 in fldList, rec=   1
(PID.TID 0000.0001) READ_MFLDS_3D_RL: read field: "Vvel    ", #   2 in fldList, rec=   2
(PID.TID 0000.0001) READ_MFLDS_3D_RL: read field: "Theta   ", #   3 in fldList, rec=   3
(PID.TID 0000.0001) READ_MFLDS_3D_RL: read field: "Salt    ", #   4 in fldList, rec=   4
(PID.TID 0000.0001) READ_MFLDS_3D_RL: read field: "GuNm1   ", #   5 in fldList, rec=   5
(PID.TID 0000.0001) READ_MFLDS_3D_RL: read field: "GvNm1   ", #   6 in fldList, rec=   6
(PID.TID 0000.0001) READ_MFLDS_3D_RL: read field: "GtNm1   ", #   7 in fldList, rec=   7
(PID.TID 0000.0001) READ_MFLDS_3D_RL: read field: "GsNm1   ", #   8 in fldList, rec=   8
(PID.TID 0000.0001) READ_MFLDS_3D_RL: read field: "EtaN    ", #   9 in fldList, rec= 241
(PID.TID 0000.0001) READ_MFLDS_3D_RL: read field: "dEtaHdt ", #  10 in fldList, rec= 242
(PID.TID 0000.0001) READ_MFLDS_3D_RL: read field: "EtaH    ", #  11 in fldList, rec= 243
(PID.TID 0000.0001) READ_MFLDS_CHECK: - normal end ; reset MFLDS file-name: pickup.0000008640
(PID.TID 0000.0001) // =======================================================
(PID.TID 0000.0001) // Model current state
(PID.TID 0000.0001) // =======================================================
(PID.TID 0000.0001) 
(PID.TID 0000.0001) SOLVE_FOR_PRESSURE: putPmEinXvector =    F
 cg2d: Sum(rhs),rhsMax =   7.04913205714849E-13  5.97849185308842E-02
 cg2d: Sum(rhs),rhsMax =   7.14336711527333E-13  5.85466148985740E-02
 cg2d: Sum(rhs),rhsMax =   7.18648881722905E-13  5.84695849308056E-02
 cg2d: Sum(rhs),rhsMax =   7.12871547816490E-13  5.84526907243638E-02
 cg2d: Sum(rhs),rhsMax =   7.18154729477741E-13  5.84006602056843E-02
 cg2d: Sum(rhs),rhsMax =   7.16959776053336E-13  5.83965556406680E-02
 cg2d: Sum(rhs),rhsMax =   7.20331184023842E-13  5.84579955034151E-02
 cg2d: Sum(rhs),rhsMax =   7.17545584039657E-13  5.85308743463358E-02
 cg2d: Sum(rhs),rhsMax =   7.14950451272123E-13  5.86156101695631E-02
 cg2d: Sum(rhs),rhsMax =   7.08990317491295E-13  5.87104343350865E-02
(PID.TID 0000.0001) Did not write pickup because writePickupAtEnd = FALSE
 --> objf_shelfice(bi,bj) =  0.000000000000000D+00
 --> objf_shifwflx(bi,bj) =  0.000000000000000D+00
 --> objf_test(bi,bj)   =  0.369721257608633D+06
 --> objf_tracer(bi,bj) =  0.000000000000000D+00
 --> objf_atl(bi,bj)    =  0.000000000000000D+00
  local fc =  0.369721257608633D+06
 global fc =  0.369721257608633D+06
grad-res -------------------------------
 grad-res     0    5   24   24   20    1    1    1   3.69721219277E+05  3.69721181108E+05  3.69721257609E+05
 grad-res     0    5    548533    0    1    1    1  -3.82502674811E+00 -3.82502676512E+00 -4.44608949657E-09
(PID.TID 0000.0001)  ADM  ref_cost_function      =  3.69721219277284E+05
(PID.TID 0000.0001)  ADM  adjoint_gradient       = -3.82502674811008E+00
(PID.TID 0000.0001)  ADM  finite-diff_grad       = -3.82502676511649E+00
 ph-grd  ierr ---------------------------
 ph-grd  ierr =            0 , icomp =        48533 , ichknum =            5
(PID.TID 0000.0001) 
(PID.TID 0000.0001) // =======================================================
(PID.TID 0000.0001) // Gradient check results  >>> START <<<
(PID.TID 0000.0001) // =======================================================
(PID.TID 0000.0001) 
(PID.TID 0000.0001)  EPS =   1.000000E-02
(PID.TID 0000.0001) 
(PID.TID 0000.0001) grdchk output h.p:  Id Itile Jtile LAYER   bi   bj   X(Id)           X(Id)+/-EPS
(PID.TID 0000.0001) grdchk output h.c:  Id  FC                   FC1                  FC2
(PID.TID 0000.0001) grdchk output h.g:  Id     FC1-FC2/(2*EPS)      ADJ GRAD(FC)         1-FDGRD/ADGRD
(PID.TID 0000.0001) 
(PID.TID 0000.0001) grdchk output (p):   1    20    24    20    1    1   0.000000000E+00 -1.000000000E-02
(PID.TID 0000.0001) grdchk output (c):   1  3.6972121927728E+05  3.6972118109514E+05  3.6972125762159E+05
(PID.TID 0000.0001) grdchk output (g):   1    -3.8263224298134E+00 -3.8263225188795E+00  2.3277200389415E-08
(PID.TID 0000.0001) 
(PID.TID 0000.0001) grdchk output (p):   2    21    24    20    1    1   0.000000000E+00 -1.000000000E-02
(PID.TID 0000.0001) grdchk output (c):   2  3.6972121927728E+05  3.6972118110057E+05  3.6972125761616E+05
(PID.TID 0000.0001) grdchk output (g):   2    -3.8257793203229E+00 -3.8257793698899E+00  1.2956052897195E-08
(PID.TID 0000.0001) 
(PID.TID 0000.0001) grdchk output (p):   3    22    24    20    1    1   0.000000000E+00 -1.000000000E-02
(PID.TID 0000.0001) grdchk output (c):   3  3.6972121927728E+05  3.6972118110417E+05  3.6972125761256E+05
(PID.TID 0000.0001) grdchk output (g):   3    -3.8254194805631E+00 -3.8254194604281E+00 -5.2634732128354E-09
(PID.TID 0000.0001) 
(PID.TID 0000.0001) grdchk output (p):   4    23    24    20    1    1   0.000000000E+00 -1.000000000E-02
(PID.TID 0000.0001) grdchk output (c):   4  3.6972121927728E+05  3.6972118110652E+05  3.6972125761021E+05
(PID.TID 0000.0001) grdchk output (g):   4    -3.8251846795902E+00 -3.8251846479547E+00 -8.2703077719515E-09
(PID.TID 0000.0001) 
(PID.TID 0000.0001) grdchk output (p):   5    24    24    20    1    1   0.000000000E+00 -1.000000000E-02
(PID.TID 0000.0001) grdchk output (c):   5  3.6972121927728E+05  3.6972118110810E+05  3.6972125760863E+05
(PID.TID 0000.0001) grdchk output (g):   5    -3.8250267651165E+00 -3.8250267481101E+00 -4.4460894965681E-09
(PID.TID 0000.0001) 
(PID.TID 0000.0001) grdchk  summary  :  RMS of    5 ratios =  1.2849569777704E-08
(PID.TID 0000.0001) 
(PID.TID 0000.0001) // =======================================================
(PID.TID 0000.0001) // Gradient check results  >>> END <<<
(PID.TID 0000.0001) // =======================================================
(PID.TID 0000.0001) 
(PID.TID 0000.0001)   Seconds in section "ALL                    [THE_MODEL_MAIN]":
(PID.TID 0000.0001)           User time:   341.72000000000003
(PID.TID 0000.0001)         System time:  0.66000000000000003
(PID.TID 0000.0001)     Wall clock time:   350.55877399444580
(PID.TID 0000.0001)          No. starts:           1
(PID.TID 0000.0001)           No. stops:           1
(PID.TID 0000.0001)   Seconds in section "INITIALISE_FIXED       [THE_MODEL_MAIN]":
(PID.TID 0000.0001)           User time:  0.35000000000000003
(PID.TID 0000.0001)         System time:  2.99999999999999989E-002
(PID.TID 0000.0001)     Wall clock time:  0.38899588584899902
(PID.TID 0000.0001)          No. starts:           1
(PID.TID 0000.0001)           No. stops:           1
(PID.TID 0000.0001)   Seconds in section "ADTHE_MAIN_LOOP          [ADJOINT RUN]":
(PID.TID 0000.0001)           User time:   146.10000000000002
(PID.TID 0000.0001)         System time:  0.56999999999999995
(PID.TID 0000.0001)     Wall clock time:   150.11801815032959
(PID.TID 0000.0001)          No. starts:           1
(PID.TID 0000.0001)           No. stops:           1
(PID.TID 0000.0001)   Seconds in section "UPDATE_SURF_DR      [FORWARD_STEP]":
(PID.TID 0000.0001)           User time:  0.17000000000012960
(PID.TID 0000.0001)         System time:   0.0000000000000000
(PID.TID 0000.0001)     Wall clock time:  0.20805072784423828
(PID.TID 0000.0001)          No. starts:         240
(PID.TID 0000.0001)           No. stops:         240
(PID.TID 0000.0001)   Seconds in section "LOAD_FIELDS_DRIVER  [FORWARD_STEP]":
(PID.TID 0000.0001)           User time:  9.99999999999090505E-003
(PID.TID 0000.0001)         System time:   0.0000000000000000
(PID.TID 0000.0001)     Wall clock time:  3.30114364624023438E-003
(PID.TID 0000.0001)          No. starts:         120
(PID.TID 0000.0001)           No. stops:         120
(PID.TID 0000.0001)   Seconds in section "EXTERNAL_FLDS_LOAD [LOAD_FLDS_DRIVER]":
(PID.TID 0000.0001)           User time:   0.0000000000000000
(PID.TID 0000.0001)         System time:   0.0000000000000000
(PID.TID 0000.0001)     Wall clock time:  1.32989883422851563E-003
(PID.TID 0000.0001)          No. starts:         140
(PID.TID 0000.0001)           No. stops:         140
(PID.TID 0000.0001)   Seconds in section "I/O (WRITE)        [ADJOINT LOOP]":
(PID.TID 0000.0001)           User time:   0.0000000000000000
(PID.TID 0000.0001)         System time:   0.0000000000000000
(PID.TID 0000.0001)     Wall clock time:  1.61504745483398438E-003
(PID.TID 0000.0001)          No. starts:         180
(PID.TID 0000.0001)           No. stops:         180
(PID.TID 0000.0001)   Seconds in section "DO_ATMOSPHERIC_PHYS [FORWARD_STEP]":
(PID.TID 0000.0001)           User time:   0.0000000000000000
(PID.TID 0000.0001)         System time:   0.0000000000000000
(PID.TID 0000.0001)     Wall clock time:  1.08551979064941406E-003
(PID.TID 0000.0001)          No. starts:         120
(PID.TID 0000.0001)           No. stops:         120
(PID.TID 0000.0001)   Seconds in section "DO_OCEANIC_PHYS     [FORWARD_STEP]":
(PID.TID 0000.0001)           User time:   5.3000000000000114
(PID.TID 0000.0001)         System time:   0.0000000000000000
(PID.TID 0000.0001)     Wall clock time:   5.4493401050567627
(PID.TID 0000.0001)          No. starts:         120
(PID.TID 0000.0001)           No. stops:         120
(PID.TID 0000.0001)   Seconds in section "SHELFICE_THERMODYNAMICS [DO_OCEANIC_PHYS]":
(PID.TID 0000.0001)           User time:  0.74000000000029331
(PID.TID 0000.0001)         System time:   0.0000000000000000
(PID.TID 0000.0001)     Wall clock time:  0.76372265815734863
(PID.TID 0000.0001)          No. starts:         130
(PID.TID 0000.0001)           No. stops:         130
(PID.TID 0000.0001)   Seconds in section "DYNAMICS            [FORWARD_STEP]":
(PID.TID 0000.0001)           User time:   87.460000000000264
(PID.TID 0000.0001)         System time:   0.0000000000000000
(PID.TID 0000.0001)     Wall clock time:   89.653932809829712
(PID.TID 0000.0001)          No. starts:         120
(PID.TID 0000.0001)           No. stops:         120
(PID.TID 0000.0001)   Seconds in section "SOLVE_FOR_PRESSURE  [FORWARD_STEP]":
(PID.TID 0000.0001)           User time:   51.150000000000034
(PID.TID 0000.0001)         System time:   0.0000000000000000
(PID.TID 0000.0001)     Wall clock time:   52.213626623153687
(PID.TID 0000.0001)          No. starts:         120
(PID.TID 0000.0001)           No. stops:         120
(PID.TID 0000.0001)   Seconds in section "MOM_CORRECTION_STEP [FORWARD_STEP]":
(PID.TID 0000.0001)           User time:   1.8899999999998727
(PID.TID 0000.0001)         System time:  1.00000000000000089E-002
(PID.TID 0000.0001)     Wall clock time:   1.8869571685791016
(PID.TID 0000.0001)          No. starts:         120
(PID.TID 0000.0001)           No. stops:         120
(PID.TID 0000.0001)   Seconds in section "INTEGR_CONTINUITY   [FORWARD_STEP]":
(PID.TID 0000.0001)           User time:   6.2200000000000841
(PID.TID 0000.0001)         System time:   0.0000000000000000
(PID.TID 0000.0001)     Wall clock time:   6.5879299640655518
(PID.TID 0000.0001)          No. starts:         120
(PID.TID 0000.0001)           No. stops:         120
(PID.TID 0000.0001)   Seconds in section "CALC_SURF_DR      [FORWARD_STEP]":
(PID.TID 0000.0001)           User time:  0.18999999999988404
(PID.TID 0000.0001)         System time:   0.0000000000000000
(PID.TID 0000.0001)     Wall clock time:  0.23725724220275879
(PID.TID 0000.0001)          No. starts:         120
(PID.TID 0000.0001)           No. stops:         120
(PID.TID 0000.0001)   Seconds in section "BLOCKING_EXCHANGES  [FORWARD_STEP]":
(PID.TID 0000.0001)           User time:   1.2500000000000000
(PID.TID 0000.0001)         System time:   0.0000000000000000
(PID.TID 0000.0001)     Wall clock time:   1.2630617618560791
(PID.TID 0000.0001)          No. starts:         240
(PID.TID 0000.0001)           No. stops:         240
(PID.TID 0000.0001)   Seconds in section "THERMODYNAMICS      [FORWARD_STEP]":
(PID.TID 0000.0001)           User time:   49.470000000000198
(PID.TID 0000.0001)         System time:  1.00000000000000089E-002
(PID.TID 0000.0001)     Wall clock time:   50.559468030929565
(PID.TID 0000.0001)          No. starts:         120
(PID.TID 0000.0001)           No. stops:         120
(PID.TID 0000.0001)   Seconds in section "TRC_CORRECTION_STEP [FORWARD_STEP]":
(PID.TID 0000.0001)           User time:   12.079999999999984
(PID.TID 0000.0001)         System time:   0.0000000000000000
(PID.TID 0000.0001)     Wall clock time:   12.362694740295410
(PID.TID 0000.0001)          No. starts:         120
(PID.TID 0000.0001)           No. stops:         120
(PID.TID 0000.0001)   Seconds in section "MONITOR             [FORWARD_STEP]":
(PID.TID 0000.0001)           User time:   2.3899999999999864
(PID.TID 0000.0001)         System time:   0.0000000000000000
(PID.TID 0000.0001)     Wall clock time:   2.4053437709808350
(PID.TID 0000.0001)          No. starts:         120
(PID.TID 0000.0001)           No. stops:         120
(PID.TID 0000.0001)   Seconds in section "COST_TILE           [FORWARD_STEP]":
(PID.TID 0000.0001)           User time:   5.4099999999997976
(PID.TID 0000.0001)         System time:   0.0000000000000000
(PID.TID 0000.0001)     Wall clock time:   5.6438403129577637
(PID.TID 0000.0001)          No. starts:         120
(PID.TID 0000.0001)           No. stops:         120
(PID.TID 0000.0001)   Seconds in section "DO_THE_MODEL_IO     [FORWARD_STEP]":
(PID.TID 0000.0001)           User time:  6.00000000000022737E-002
(PID.TID 0000.0001)         System time:   0.0000000000000000
(PID.TID 0000.0001)     Wall clock time:  6.18925094604492188E-002
(PID.TID 0000.0001)          No. starts:         120
(PID.TID 0000.0001)           No. stops:         120
(PID.TID 0000.0001)   Seconds in section "DO_WRITE_PICKUP     [FORWARD_STEP]":
(PID.TID 0000.0001)           User time:  0.12000000000000455
(PID.TID 0000.0001)         System time:  2.00000000000000178E-002
(PID.TID 0000.0001)     Wall clock time:  0.13250112533569336
(PID.TID 0000.0001)          No. starts:         120
(PID.TID 0000.0001)           No. stops:         120
(PID.TID 0000.0001)   Seconds in section "GRDCHK_MAIN         [THE_MODEL_MAIN]":
(PID.TID 0000.0001)           User time:   195.27000000000001
(PID.TID 0000.0001)         System time:  6.00000000000000533E-002
(PID.TID 0000.0001)     Wall clock time:   200.05170202255249
(PID.TID 0000.0001)          No. starts:           1
(PID.TID 0000.0001)           No. stops:           1
(PID.TID 0000.0001)   Seconds in section "INITIALISE_VARIA    [THE_MAIN_LOOP]":
(PID.TID 0000.0001)           User time:   3.3399999999999750
(PID.TID 0000.0001)         System time:  2.00000000000000178E-002
(PID.TID 0000.0001)     Wall clock time:   3.4889020919799805
(PID.TID 0000.0001)          No. starts:          10
(PID.TID 0000.0001)           No. stops:          10
(PID.TID 0000.0001)   Seconds in section "MAIN LOOP           [THE_MAIN_LOOP]":
(PID.TID 0000.0001)           User time:   191.46000000000009
(PID.TID 0000.0001)         System time:  2.00000000000000178E-002
(PID.TID 0000.0001)     Wall clock time:   196.07303905487061
(PID.TID 0000.0001)          No. starts:          10
(PID.TID 0000.0001)           No. stops:          10
(PID.TID 0000.0001)   Seconds in section "FORWARD_STEP        [THE_MAIN_LOOP]":
(PID.TID 0000.0001)           User time:   184.14000000000038
(PID.TID 0000.0001)         System time:  2.00000000000000178E-002
(PID.TID 0000.0001)     Wall clock time:   188.55021357536316
(PID.TID 0000.0001)          No. starts:         100
(PID.TID 0000.0001)           No. stops:         100
(PID.TID 0000.0001)   Seconds in section "COST_FINAL         [ADJOINT SPIN-DOWN]":
(PID.TID 0000.0001)           User time:  5.00000000000113687E-002
(PID.TID 0000.0001)         System time:   0.0000000000000000
(PID.TID 0000.0001)     Wall clock time:  5.99715709686279297E-002
(PID.TID 0000.0001)          No. starts:          10
(PID.TID 0000.0001)           No. stops:          10
(PID.TID 0000.0001) // ======================================================
(PID.TID 0000.0001) // Tile <-> Tile communication statistics
(PID.TID 0000.0001) // ======================================================
(PID.TID 0000.0001) // o Tile number: 000001
(PID.TID 0000.0001) //         No. X exchanges =              0
(PID.TID 0000.0001) //            Max. X spins =              0
(PID.TID 0000.0001) //            Min. X spins =     1000000000
(PID.TID 0000.0001) //          Total. X spins =              0
(PID.TID 0000.0001) //            Avg. X spins =       0.00E+00
(PID.TID 0000.0001) //         No. Y exchanges =              0
(PID.TID 0000.0001) //            Max. Y spins =              0
(PID.TID 0000.0001) //            Min. Y spins =     1000000000
(PID.TID 0000.0001) //          Total. Y spins =              0
(PID.TID 0000.0001) //            Avg. Y spins =       0.00E+00
(PID.TID 0000.0001) // o Thread number: 000001
(PID.TID 0000.0001) //            No. barriers =         183214
(PID.TID 0000.0001) //      Max. barrier spins =              1
(PID.TID 0000.0001) //      Min. barrier spins =              1
(PID.TID 0000.0001) //     Total barrier spins =         183214
(PID.TID 0000.0001) //      Avg. barrier spins =       1.00E+00
PROGRAM MAIN: Execution ended Normally
