(PID.TID 0000.0001) 
(PID.TID 0000.0001) // ======================================================
(PID.TID 0000.0001) //                      MITgcm UV
(PID.TID 0000.0001) //                      =========
(PID.TID 0000.0001) // ======================================================
(PID.TID 0000.0001) // execution environment starting up...
(PID.TID 0000.0001) 
(PID.TID 0000.0001) // MITgcmUV version:  checkpoint57c_pre
(PID.TID 0000.0001) // Build user:        jmc
(PID.TID 0000.0001) // Build host:        faulks
(PID.TID 0000.0001) // Build date:        Thu Jan 27 09:41:04 EST 2005
(PID.TID 0000.0001) 
(PID.TID 0000.0001) // =======================================================
(PID.TID 0000.0001) // Execution Environment parameter file "eedata"
(PID.TID 0000.0001) // =======================================================
(PID.TID 0000.0001) ># Example "eedata" file
(PID.TID 0000.0001) ># Lines beginning "#" are comments
(PID.TID 0000.0001) ># nTx - No. threads per process in X
(PID.TID 0000.0001) ># nTy - No. threads per process in Y
(PID.TID 0000.0001) > &EEPARMS
(PID.TID 0000.0001) > nTx=1,nTy=1
(PID.TID 0000.0001) > &
(PID.TID 0000.0001) ># Note: Some systems use & as the
(PID.TID 0000.0001) ># namelist terminator. Other systems
(PID.TID 0000.0001) ># use a / character (as shown here).
(PID.TID 0000.0001) 
(PID.TID 0000.0001) // =======================================================
(PID.TID 0000.0001) // Computational Grid Specification ( see files "SIZE.h" )
(PID.TID 0000.0001) //                                  ( and "eedata"       )
(PID.TID 0000.0001) // =======================================================
(PID.TID 0000.0001)      nPx =    1 ; /* No. processes in X */
(PID.TID 0000.0001)      nPy =    1 ; /* No. processes in Y */
(PID.TID 0000.0001)      nSx =    2 ; /* No. tiles in X per process */
(PID.TID 0000.0001)      nSy =    2 ; /* No. tiles in Y per process */
(PID.TID 0000.0001)      sNx =   45 ; /* Tile size in X */
(PID.TID 0000.0001)      sNy =   20 ; /* Tile size in Y */
(PID.TID 0000.0001)      OLx =    2 ; /* Tile overlap distance in X */
(PID.TID 0000.0001)      OLy =    2 ; /* Tile overlap distance in Y */
(PID.TID 0000.0001)      nTx =    1 ; /* No. threads in X per process */
(PID.TID 0000.0001)      nTy =    1 ; /* No. threads in Y per process */
(PID.TID 0000.0001)       Nr =   20 ; /* No. levels in the vertical   */
(PID.TID 0000.0001)       nX =   90 ; /* Total domain size in X ( = nPx*nSx*sNx ) */
(PID.TID 0000.0001)       nY =   40 ; /* Total domain size in Y ( = nPy*nSy*sNy ) */
(PID.TID 0000.0001)   nTiles =    4 ; /* Total no. tiles per process ( = nSx*nSy ) */
(PID.TID 0000.0001)   nProcs =    1 ; /* Total no. processes ( = nPx*nPy ) */
(PID.TID 0000.0001) nThreads =    1 ; /* Total no. threads per process ( = nTx*nTy ) */
(PID.TID 0000.0001) usingMPI =    F ; /* Flag used to control whether MPI is in use */
(PID.TID 0000.0001)                   /*  note: To execute a program with MPI calls */
(PID.TID 0000.0001)                   /*  it must be launched appropriately e.g     */
(PID.TID 0000.0001)                   /*  "mpirun -np 64 ......"                    */
(PID.TID 0000.0001) useCoupler=   F ; /* Flag used to control communications with */
(PID.TID 0000.0001)                   /*  other model components, through a coupler */
(PID.TID 0000.0001) 
(PID.TID 0000.0001) // ======================================================
(PID.TID 0000.0001) // Mapping of tiles to threads
(PID.TID 0000.0001) // ======================================================
(PID.TID 0000.0001) // -o- Thread   1, tiles (   1:   2,   1:   2)
(PID.TID 0000.0001) 
(PID.TID 0000.0001) // ======================================================
(PID.TID 0000.0001) // Tile <-> Tile connectvity table
(PID.TID 0000.0001) // ======================================================
(PID.TID 0000.0001) // Tile number: 000001 (process no. = 000001)
(PID.TID 0000.0001) //        WEST: Tile = 000002, Process = 000001, Comm = put
(PID.TID 0000.0001) //                bi = 000002, bj = 000001
(PID.TID 0000.0001) //        EAST: Tile = 000002, Process = 000001, Comm = put
(PID.TID 0000.0001) //                bi = 000002, bj = 000001
(PID.TID 0000.0001) //       SOUTH: Tile = 000003, Process = 000001, Comm = put
(PID.TID 0000.0001) //                bi = 000001, bj = 000002
(PID.TID 0000.0001) //       NORTH: Tile = 000003, Process = 000001, Comm = put
(PID.TID 0000.0001) //                bi = 000001, bj = 000002
(PID.TID 0000.0001) // Tile number: 000002 (process no. = 000001)
(PID.TID 0000.0001) //        WEST: Tile = 000001, Process = 000001, Comm = put
(PID.TID 0000.0001) //                bi = 000001, bj = 000001
(PID.TID 0000.0001) //        EAST: Tile = 000001, Process = 000001, Comm = put
(PID.TID 0000.0001) //                bi = 000001, bj = 000001
(PID.TID 0000.0001) //       SOUTH: Tile = 000004, Process = 000001, Comm = put
(PID.TID 0000.0001) //                bi = 000002, bj = 000002
(PID.TID 0000.0001) //       NORTH: Tile = 000004, Process = 000001, Comm = put
(PID.TID 0000.0001) //                bi = 000002, bj = 000002
(PID.TID 0000.0001) // Tile number: 000003 (process no. = 000001)
(PID.TID 0000.0001) //        WEST: Tile = 000004, Process = 000001, Comm = put
(PID.TID 0000.0001) //                bi = 000002, bj = 000002
(PID.TID 0000.0001) //        EAST: Tile = 000004, Process = 000001, Comm = put
(PID.TID 0000.0001) //                bi = 000002, bj = 000002
(PID.TID 0000.0001) //       SOUTH: Tile = 000001, Process = 000001, Comm = put
(PID.TID 0000.0001) //                bi = 000001, bj = 000001
(PID.TID 0000.0001) //       NORTH: Tile = 000001, Process = 000001, Comm = put
(PID.TID 0000.0001) //                bi = 000001, bj = 000001
(PID.TID 0000.0001) // Tile number: 000004 (process no. = 000001)
(PID.TID 0000.0001) //        WEST: Tile = 000003, Process = 000001, Comm = put
(PID.TID 0000.0001) //                bi = 000001, bj = 000002
(PID.TID 0000.0001) //        EAST: Tile = 000003, Process = 000001, Comm = put
(PID.TID 0000.0001) //                bi = 000001, bj = 000002
(PID.TID 0000.0001) //       SOUTH: Tile = 000002, Process = 000001, Comm = put
(PID.TID 0000.0001) //                bi = 000002, bj = 000001
(PID.TID 0000.0001) //       NORTH: Tile = 000002, Process = 000001, Comm = put
(PID.TID 0000.0001) //                bi = 000002, bj = 000001
(PID.TID 0000.0001) 
(PID.TID 0000.0001) // =======================================================
(PID.TID 0000.0001) // Model parameter file "data"
(PID.TID 0000.0001) // =======================================================
(PID.TID 0000.0001) ># ====================
(PID.TID 0000.0001) ># | Model parameters |
(PID.TID 0000.0001) ># ====================
(PID.TID 0000.0001) >#
(PID.TID 0000.0001) ># Continuous equation parameters
(PID.TID 0000.0001) > &PARM01
(PID.TID 0000.0001) > tRef= 16.0 , 15.2 , 14.5 , 13.9 , 13.3 ,
(PID.TID 0000.0001) >       12.4 , 11.3 ,  9.9 ,  8.4 ,  6.7 ,
(PID.TID 0000.0001) >        5.2 ,  3.8 ,  2.9 ,  2.3 ,  1.8 ,
(PID.TID 0000.0001) >        1.5 ,  1.1 ,  0.8 ,  0.66,  0.63,
(PID.TID 0000.0001) > sRef= 34.65, 34.75, 34.82, 34.87, 34.90,
(PID.TID 0000.0001) >       34.90, 34.86, 34.78, 34.69, 34.60,
(PID.TID 0000.0001) >       34.58, 34.62, 34.68, 34.72, 34.73,
(PID.TID 0000.0001) >       34.74, 34.73, 34.73, 34.72, 34.72,
(PID.TID 0000.0001) > viscAz=1.E-3,
(PID.TID 0000.0001) > viscAh=5.E5,
(PID.TID 0000.0001) > no_slip_sides=.FALSE.,
(PID.TID 0000.0001) > no_slip_bottom=.TRUE.,
(PID.TID 0000.0001) > diffKhT=1.E3,
(PID.TID 0000.0001) > diffKzT=3.E-5,
(PID.TID 0000.0001) > diffKhS=1.E3,
(PID.TID 0000.0001) > diffKzS=3.E-5,
(PID.TID 0000.0001) > tAlpha=2.E-4,
(PID.TID 0000.0001) > sBeta =7.4E-4,
(PID.TID 0000.0001) > gravity=9.81,
(PID.TID 0000.0001) > rigidLid=.FALSE.,
(PID.TID 0000.0001) > implicitFreeSurface=.TRUE.,
(PID.TID 0000.0001) > useCDscheme=.TRUE.,
(PID.TID 0000.0001) > useNHMTerms=.TRUE.,
(PID.TID 0000.0001) > eosType='LINEAR',
(PID.TID 0000.0001) > readBinaryPrec=32,
(PID.TID 0000.0001) > &
(PID.TID 0000.0001) >
(PID.TID 0000.0001) ># Elliptic solver parameters
(PID.TID 0000.0001) > &PARM02
(PID.TID 0000.0001) > cg2dMaxIters=1000,
(PID.TID 0000.0001) > cg2dTargetResidual=1.E-13,
(PID.TID 0000.0001) > &
(PID.TID 0000.0001) >
(PID.TID 0000.0001) ># Time stepping parameters
(PID.TID 0000.0001) > &PARM03
(PID.TID 0000.0001) > startTime=0,
(PID.TID 0000.0001) >#endTime=3110400000,
(PID.TID 0000.0001) > endTime=2808000.,
(PID.TID 0000.0001) > deltaTmom=2400.0,
(PID.TID 0000.0001) > tauCD=321428.,
(PID.TID 0000.0001) > deltaTtracer=108000.0,
(PID.TID 0000.0001) > deltaTClock =108000.0,
(PID.TID 0000.0001) > cAdjFreq=-1.,
(PID.TID 0000.0001) > abEps=0.1,
(PID.TID 0000.0001) > pChkptFreq=0.0,
(PID.TID 0000.0001) > chkptFreq=0.0,
(PID.TID 0000.0001) > dumpFreq=2592000.0,
(PID.TID 0000.0001) > tauThetaClimRelax=2592000.0,
(PID.TID 0000.0001) > tauSaltClimRelax=2592000.0,
(PID.TID 0000.0001) > monitorFreq=1.,
(PID.TID 0000.0001) > &
(PID.TID 0000.0001) >
(PID.TID 0000.0001) ># Gridding parameters
(PID.TID 0000.0001) > &PARM04
(PID.TID 0000.0001) > usingCartesianGrid=.FALSE.,
(PID.TID 0000.0001) > usingSphericalPolarGrid=.TRUE.,
(PID.TID 0000.0001) > delZ= 5.000000e+01, 5.000000e+01, 5.500000e+01, 6.000000e+01,
(PID.TID 0000.0001) >       6.500000e+01, 7.000000e+01, 8.000000e+01, 9.500000e+01,
(PID.TID 0000.0001) >       1.200000e+02, 1.550000e+02, 2.000000e+02, 2.600000e+02,
(PID.TID 0000.0001) >       3.200000e+02, 4.000000e+02, 4.800000e+02, 5.700000e+02,
(PID.TID 0000.0001) >       6.550000e+02, 7.250000e+02, 7.750000e+02, 8.150000e+02,
(PID.TID 0000.0001) > phiMin=-80.,
(PID.TID 0000.0001) > delY=40*4,
(PID.TID 0000.0001) > delX=90*4,
(PID.TID 0000.0001) > &
(PID.TID 0000.0001) >
(PID.TID 0000.0001) ># Input datasets
(PID.TID 0000.0001) > &PARM05
(PID.TID 0000.0001) > hydrogThetaFile='theta.bin',
(PID.TID 0000.0001) > hydrogSaltFile='salt.bin',
(PID.TID 0000.0001) > bathyFile='topog.bin',
(PID.TID 0000.0001) > zonalWindFile='windx.bin',
(PID.TID 0000.0001) > meridWindFile='windy.bin',
(PID.TID 0000.0001) > thetaClimFile='SST.bin'
(PID.TID 0000.0001) > saltClimFile='SSS.bin'
(PID.TID 0000.0001) > &
(PID.TID 0000.0001) 
(PID.TID 0000.0001) S/R INI_PARMS ; starts to read PARM01
(PID.TID 0000.0001) S/R INI_PARMS ; read PARM01 : OK
(PID.TID 0000.0001) S/R INI_PARMS ; starts to read PARM02
(PID.TID 0000.0001) S/R INI_PARMS ; read PARM02 : OK
(PID.TID 0000.0001) S/R INI_PARMS ; starts to read PARM03
(PID.TID 0000.0001) S/R INI_PARMS ; read PARM03 : OK
(PID.TID 0000.0001) S/R INI_PARMS ; starts to read PARM04
(PID.TID 0000.0001) S/R INI_PARMS ; read PARM04 : OK
(PID.TID 0000.0001) S/R INI_PARMS ; starts to read PARM05
(PID.TID 0000.0001) S/R INI_PARMS ; read PARM05 : OK
(PID.TID 0000.0001)  PACKAGES_BOOT: opening data.pkg
(PID.TID 0000.0001)  OPEN_COPY_DATA_FILE: opening file data.pkg
(PID.TID 0000.0001) // =======================================================
(PID.TID 0000.0001) // Parameter file "data.pkg"
(PID.TID 0000.0001) // =======================================================
(PID.TID 0000.0001) ># Packages
(PID.TID 0000.0001) > &PACKAGES
(PID.TID 0000.0001) > &
(PID.TID 0000.0001) 
(PID.TID 0000.0001)  PACKAGES_BOOT: finished reading data.pkg
(PID.TID 0000.0001) %MON XC_max                       =   3.5800000000000E+02
(PID.TID 0000.0001) %MON XC_min                       =   2.0000000000000E+00
(PID.TID 0000.0001) %MON XC_mean                      =   1.8000000000000E+02
(PID.TID 0000.0001) %MON XC_sd                        =   1.0391663325314E+02
(PID.TID 0000.0001) %MON XG_max                       =   3.5600000000000E+02
(PID.TID 0000.0001) %MON XG_min                       =   4.0000000000000E+00
(PID.TID 0000.0001) %MON XG_mean                      =   1.8000000000000E+02
(PID.TID 0000.0001) %MON XG_sd                        =   1.0276186062932E+02
(PID.TID 0000.0001) %MON DXC_max                      =   4.4443898815675E+05
(PID.TID 0000.0001) %MON DXC_min                      =   9.2460385861875E+04
(PID.TID 0000.0001) %MON DXC_mean                     =   3.1372497618153E+05
(PID.TID 0000.0001) %MON DXC_sd                       =   1.1216447457560E+05
(PID.TID 0000.0001) %MON DXF_max                      =   4.4443898815675E+05
(PID.TID 0000.0001) %MON DXF_min                      =   9.2460385861875E+04
(PID.TID 0000.0001) %MON DXF_mean                     =   3.1372497618153E+05
(PID.TID 0000.0001) %MON DXF_sd                       =   1.1216447457560E+05
(PID.TID 0000.0001) %MON DXG_max                      =   4.4470989340816E+05
(PID.TID 0000.0001) %MON DXG_min                      =   7.7223062580781E+04
(PID.TID 0000.0001) %MON DXG_mean                     =   3.1353386340261E+05
(PID.TID 0000.0001) %MON DXG_sd                       =   1.1256651772502E+05
(PID.TID 0000.0001) %MON DXV_max                      =   4.4470989340816E+05
(PID.TID 0000.0001) %MON DXV_min                      =   7.7223062580781E+04
(PID.TID 0000.0001) %MON DXV_mean                     =   3.1353386340261E+05
(PID.TID 0000.0001) %MON DXV_sd                       =   1.1256651772502E+05
(PID.TID 0000.0001) %MON YC_max                       =   7.8000000000000E+01
(PID.TID 0000.0001) %MON YC_min                       =  -7.8000000000000E+01
(PID.TID 0000.0001) %MON YC_mean                      =   0.0000000000000E+00
(PID.TID 0000.0001) %MON YC_sd                        =   4.6173585522461E+01
(PID.TID 0000.0001) %MON YG_max                       =   7.6000000000000E+01
(PID.TID 0000.0001) %MON YG_min                       =  -8.0000000000000E+01
(PID.TID 0000.0001) %MON YG_mean                      =  -2.0512820512821E+00
(PID.TID 0000.0001) %MON YG_sd                        =   4.6760682979564E+01
(PID.TID 0000.0001) %MON DYC_max                      =   4.4470989340816E+05
(PID.TID 0000.0001) %MON DYC_min                      =   4.4470989340816E+05
(PID.TID 0000.0001) %MON DYC_mean                     =   4.4470989340816E+05
(PID.TID 0000.0001) %MON DYC_sd                       =   5.2968971431255E-09
(PID.TID 0000.0001) %MON DYF_max                      =   4.4470989340816E+05
(PID.TID 0000.0001) %MON DYF_min                      =   4.4470989340816E+05
(PID.TID 0000.0001) %MON DYF_mean                     =   4.4470989340816E+05
(PID.TID 0000.0001) %MON DYF_sd                       =   5.2968971431255E-09
(PID.TID 0000.0001) %MON DYG_max                      =   4.4470989340816E+05
(PID.TID 0000.0001) %MON DYG_min                      =   4.4470989340816E+05
(PID.TID 0000.0001) %MON DYG_mean                     =   4.4470989340816E+05
(PID.TID 0000.0001) %MON DYG_sd                       =   5.2968971431255E-09
(PID.TID 0000.0001) %MON DYU_max                      =   4.4470989340816E+05
(PID.TID 0000.0001) %MON DYU_min                      =   4.4470989340816E+05
(PID.TID 0000.0001) %MON DYU_mean                     =   4.4470989340816E+05
(PID.TID 0000.0001) %MON DYU_sd                       =   5.2968971431255E-09
(PID.TID 0000.0001) %MON RA_max                       =   1.9760627980089E+11
(PID.TID 0000.0001) %MON RA_min                       =   4.1109698667290E+10
(PID.TID 0000.0001) %MON RA_mean                      =   1.3948826965196E+11
(PID.TID 0000.0001) %MON RA_sd                        =   4.9870522472902E+10
(PID.TID 0000.0001) %MON RAW_max                      =   1.9760627980089E+11
(PID.TID 0000.0001) %MON RAW_min                      =   4.1109698667290E+10
(PID.TID 0000.0001) %MON RAW_mean                     =   1.3948826965196E+11
(PID.TID 0000.0001) %MON RAW_sd                       =   4.9870522472902E+10
(PID.TID 0000.0001) %MON RAS_max                      =   1.9772672958215E+11
(PID.TID 0000.0001) %MON RAS_min                      =   3.4334886267983E+10
(PID.TID 0000.0001) %MON RAS_mean                     =   1.3940329716694E+11
(PID.TID 0000.0001) %MON RAS_sd                       =   5.0049278732353E+10
(PID.TID 0000.0001) %MON RAZ_max                      =   1.9772672958215E+11
(PID.TID 0000.0001) %MON RAZ_min                      =   3.4334886267983E+10
(PID.TID 0000.0001) %MON RAZ_mean                     =   1.3940329716694E+11
(PID.TID 0000.0001) %MON RAZ_sd                       =   5.0049278732353E+10
(PID.TID 0000.0001)  MDSREADFIELD: opening global file: topog.bin
(PID.TID 0000.0001) // =======================================================
(PID.TID 0000.0001) // Field Model R_low (ini_masks_etc) at iteration          1
(PID.TID 0000.0001) // CMIN =         -6.000000000000000E+03
(PID.TID 0000.0001) // CMAX =         -5.000000000000000E+01
(PID.TID 0000.0001) // CINT =          2.203703703703704E+02
(PID.TID 0000.0001) // SYMBOLS (CMIN->CMAX): -abcdefghijklmnopqrstuvwxyz+
(PID.TID 0000.0001) //                  0.0: .
(PID.TID 0000.0001) // RANGE I (Lo:Hi:Step):(  -1:  92:   1)
(PID.TID 0000.0001) // RANGE J (Lo:Hi:Step):(  42:  -1:  -1)
(PID.TID 0000.0001) // RANGE K (Lo:Hi:Step):(   1:   1:   1)
(PID.TID 0000.0001) // =======================================================
(PID.TID 0000.0001) K =   1
(PID.TID 0000.0001) //                I=8       I=18      I=28      I=38      I=44      I=54      I=64      I=74      I=84
(PID.TID 0000.0001) // |--J--|*01234567|901234567|901234567|901234567|901234567|567890123|567890123|567890123|567890123|56789012
(PID.TID 0000.0001) //     42 .............................................yyxwyyxwrpmm...........................xwtt..........
(PID.TID 0000.0001) //     41 ..................................................................................................
(PID.TID 0000.0001) //     40 ..................................................................................................
(PID.TID 0000.0001) //     39 pmmmprxz.......................................................................rtw.........wrppmmm
(PID.TID 0000.0001) //     38 mmmmmr..........................................................................vw........wwtrmmmm
(PID.TID 0000.0001) //     37 mmpw............................................................................xrr...rprv..tvmmpw
(PID.TID 0000.0001) //     36 xxz..........................................mmprmmprz..........................vpmm.mmprrpprtxxz.
(PID.TID 0000.0001) //     35 ..++.................................ywxz.kgmmmmmmmmmmvr.ggkkmr..................pkkkkmpmmprpr..++
(PID.TID 0000.0001) //     34 ......................................wwwd-gd----------d-ggkkkmp..................xmkkkkkkkgmw....
(PID.TID 0000.0001) //     33 g.....................................mm---------------ddddggkkpr...............zz.tmkgkkkggggg...
(PID.TID 0000.0001) //     32 ......................................k---d------------dddddgkkkp...............pkgkgdgkmmkgdg....
(PID.TID 0000.0001) //     31 ......................................-----d----------dddddd-dggg.............kgdd-dd-gkpkgdd.....
(PID.TID 0000.0001) //     30 .....................................----d--d-gdd-gddd----dd-dddg............gdddd---dkmkddddd....
(PID.TID 0000.0001) //     29 .................................zvgk----d---ddd-ddd-------ddddgkkm.........pd-dd---gkkgk-dgkk....
(PID.TID 0000.0001) //     28 ................................yrggd----------dd--dddd----ddgggkkk......pm.gddd----ggd--ddkm.....
(PID.TID 0000.0001) //     27 .................................---dd---------dd--dddgggdddddggkkkkm...kkmrrd-----dkg---dgk......
(PID.TID 0000.0001) //     26 .................kmm....t.....mkg---dg----ddddgdddgdddddgdddddddgkkkmk..m.kggk-----gkg--ddgm......
(PID.TID 0000.0001) //     25 ...............kkkkk..mmpp...rkk.d--dg----dddddd-ddd-dd-dd---dddggkkkkk....kkkgdd-dgkd---dkk......
(PID.TID 0000.0001) //     24 ..............pkkkkkt.kkmp...kkk.---------dggd---d---dd-dd--dddgggkkkkmkgk.mkk.dpgddgg---dgk......
(PID.TID 0000.0001) //     23 ...............dgkggmpkkkk.++ppkk----kggddddkd---d----dgdddddgggggkkkkmkkkm......mkggkkdddggg.....
(PID.TID 0000.0001) //     22 gggk..........ddgkkkmkkkkk..++..d--dggdgkkggkgdd-gdd--ddkgddggkkkkkkkkmmkkmm.......mkkgkkkgddggggk
(PID.TID 0000.0001) //     21 ddgk.........gddggkkggggggg.....ppkkgkgdkpkkkgd--gd----ddgggkkkkggkkkkkmmmmm........kkkkgkgdddddgk
(PID.TID 0000.0001) //     20 dgggk.......kddgkgkggddggdd.......d...rrmrkkkdd--dd----dddggggggggkkkkkkkkk............kdd-dggdggg
(PID.TID 0000.0001) //     19 gdddg.......kggkkkkmddddddd--.kkkg-t...-dkkkddgd-dgd--ggddddkkgggkkkkkkkkkkd...........gd-dgkkgddd
(PID.TID 0000.0001) //     22 gggk..........ddgkkkmkkkkk..++..d--dggdgkkggkgdd-gdd--ddkgddggkkkkkkkkmmkkmm.......mkkgkkkgddggggk
(PID.TID 0000.0001) //     21 ddgk.........gddggkkggggggg.....ppkkgkgdkpkkkgd--gd----ddgggkkkkggkkkkkmmmmm........kkkkgkgdddddgk
(PID.TID 0000.0001) //     20 dgggk.......kddgkgkggddggdd.......d...rrmrkkkdd--dd----dddggggggggkkkkkkkkk............kdd-dggdggg
(PID.TID 0000.0001) //     19 gdddg.......kggkkkkmddddddd--.kkkg-t...-dkkkddgd-dgd--ggddddkkgggkkkkkkkkkkd...........gd-dgkkgddd
(PID.TID 0000.0001) //     18 ddddg.......mkkkkkkkdddgd-------mv....mkkmd-kkkkgkkkgddkddgggkkkkkkkkkkkkkggg..........gd-dgkkdddd
(PID.TID 0000.0001) //     17 gd-dg.......m..gkkkggddg--------t......ggkggkmmp-mmp--ddgggkkkkkkkkmkkkkkgggk..........gd--gkkgd-d
(PID.TID 0000.0001) //     16 gdddg......mp.ddkkmkggdg------k........wmmmgdkkp-kkp-ddggggggkkkkkkmkkkkkgkkgd........kgd--gkkgddd
(PID.TID 0000.0001) //     15 -ddkg......kk.dddgkkkggggd---g..........ggpmggkr-gkr--ddgggggkkkkkmmkkkkkkkkgk.......pkgdddgkg-ddk
(PID.TID 0000.0001) //     14 gdddgk....rggkdd-ggkkkkgggddd-...........gpkkgk--gk--ddddgggkkkkkkmmmkkkkkkkkd......mkkgd-gkkkgddd
(PID.TID 0000.0001) //     13 gkdddk...kmdgkggkggggkkkkkgddd..........-gtkkkk--kk-----dgddggkkkkkmmkkkkkkkkg.....mkkkggggkmkgkdd
(PID.TID 0000.0001) //     12 kgdddgkgkkdddmkggdggkmkkkkkdddd.d---....dddprtm--tm-----dd-ddggggkkkmkkkkkkkkg....pddddgkkkmkkkgdd
(PID.TID 0000.0001) //     11 kgddggddkgddgmkgddgkkmkkkkkggggd----ddxkgddkw.mgd.mgdgddgddddddggkkkkkkgkkkkk....pdddddddkkmmkkgdd
(PID.TID 0000.0001) //     10 kkgggddddddkmmmgddkkkmmmmkkkkkggggggggkkdddk.tpmdtpmddddgddddddggkkkkkkgggkkk...+gd-ddddggkkmkkkgg
(PID.TID 0000.0001) //      9 kkkkgdddddggkkkkgkmpmmkkkkmkmkkkkkkkgkkgddgkwtpddtpddddddddggggggkkmkkkkgggkk...xg------ddgkkmkkkk
(PID.TID 0000.0001) //      8 pmkkkkkkdddgkkgggggkrpkgkkkkkkkkkkkkkkkkgggkwgd--gd---ddddggkkkkkkmkkggddgggk..zxrpmmkggggkkkkpmkk
(PID.TID 0000.0001) //      7 kkgddddgd----ddddgggkmgddkkkkkkggggkkkkkkkgddddddddddddgggkkkkkkmmkkdddddddggkkkkkgkkkkg---gkkkkgd
(PID.TID 0000.0001) //      6 dddddddd--d--dddddgggkpkggkkkkkgggggkkkkkmdddddggddgggggkmmkkggddddddddddddddggkkkkkkkkkk-dgdddddd
(PID.TID 0000.0001) //      5 dddddddddddddgddgkgkkmmmmkk.kkkkkkkkkkkkmmpkkkkkkkkkkmmmkkkkkggddddddgdddggggkkk.xpkkgggggddd-dddd
(PID.TID 0000.0001) //      4 gkkkkkgggk.k..............................rpmmmkkmmkkkkkkkkkkkkgggggggggkgkkkm...xmkkkkggggggggkkk
(PID.TID 0000.0001) //      3 .............................................ppmkppmkkkkkkkkkkkkmmpmmmm..........wpmkkkkkkkk......
(PID.TID 0000.0001) //      2 .............................................yyxwyyxwrpmm...........................xwtt..........
(PID.TID 0000.0001) //      1 ..................................................................................................
(PID.TID 0000.0001) //      0 ..................................................................................................
(PID.TID 0000.0001) //     -1 pmmmprxz.......................................................................rtw.........wrppmmm
(PID.TID 0000.0001) // =======================================================
(PID.TID 0000.0001) // END OF FIELD                                          =
(PID.TID 0000.0001) // =======================================================
(PID.TID 0000.0001) 
(PID.TID 0000.0001) // =======================================================
(PID.TID 0000.0001) // Field Model Ro_surf (ini_masks_etc) at iteration          1
(PID.TID 0000.0001) // CMIN =          1.000000000000000E+32
(PID.TID 0000.0001) // CMAX =         -1.000000000000000E+32
(PID.TID 0000.0001) // CINT =          0.000000000000000E+00
(PID.TID 0000.0001) // SYMBOLS (CMIN->CMAX): -abcdefghijklmnopqrstuvwxyz+
(PID.TID 0000.0001) //                  0.0: .
(PID.TID 0000.0001) // RANGE I (Lo:Hi:Step):(  -1:  92:   1)
(PID.TID 0000.0001) // RANGE J (Lo:Hi:Step):(  42:  -1:  -1)
(PID.TID 0000.0001) // RANGE K (Lo:Hi:Step):(   1:   1:   1)
(PID.TID 0000.0001) // =======================================================
(PID.TID 0000.0001) // =======================================================
(PID.TID 0000.0001) // END OF FIELD                                          =
(PID.TID 0000.0001) // =======================================================
(PID.TID 0000.0001) 
(PID.TID 0000.0001) // =======================================================
(PID.TID 0000.0001) // Field hFacC at iteration          1
(PID.TID 0000.0001) // CMIN =          1.000000000000000E+00
(PID.TID 0000.0001) // CMAX =          1.000000000000000E+00
(PID.TID 0000.0001) // CINT =          0.000000000000000E+00
(PID.TID 0000.0001) // SYMBOLS (CMIN->CMAX): -abcdefghijklmnopqrstuvwxyz+
(PID.TID 0000.0001) //                  0.0: .
(PID.TID 0000.0001) // RANGE I (Lo:Hi:Step):(  -1:  92:   1)
(PID.TID 0000.0001) // RANGE J (Lo:Hi:Step):(  42:  -1:  -1)
(PID.TID 0000.0001) // RANGE K (Lo:Hi:Step):(   1:   1:   1)
(PID.TID 0000.0001) // =======================================================
(PID.TID 0000.0001) // =======================================================
(PID.TID 0000.0001) // END OF FIELD                                          =
(PID.TID 0000.0001) // =======================================================
(PID.TID 0000.0001) 
(PID.TID 0000.0001) // =======================================================
(PID.TID 0000.0001) // Field hFacW at iteration          1
(PID.TID 0000.0001) // CMIN =          1.000000000000000E+00
(PID.TID 0000.0001) // CMAX =          1.000000000000000E+00
(PID.TID 0000.0001) // CINT =          0.000000000000000E+00
(PID.TID 0000.0001) // SYMBOLS (CMIN->CMAX): -abcdefghijklmnopqrstuvwxyz+
(PID.TID 0000.0001) //                  0.0: .
(PID.TID 0000.0001) // RANGE I (Lo:Hi:Step):(  -1:  92:   1)
(PID.TID 0000.0001) // RANGE J (Lo:Hi:Step):(  42:  -1:  -1)
(PID.TID 0000.0001) // RANGE K (Lo:Hi:Step):(   1:   1:   1)
(PID.TID 0000.0001) // =======================================================
(PID.TID 0000.0001) // =======================================================
(PID.TID 0000.0001) // END OF FIELD                                          =
(PID.TID 0000.0001) // =======================================================
(PID.TID 0000.0001) 
(PID.TID 0000.0001) // =======================================================
(PID.TID 0000.0001) // Field hFacS at iteration          1
(PID.TID 0000.0001) // CMIN =          1.000000000000000E+00
(PID.TID 0000.0001) // CMAX =          1.000000000000000E+00
(PID.TID 0000.0001) // CINT =          0.000000000000000E+00
(PID.TID 0000.0001) // SYMBOLS (CMIN->CMAX): -abcdefghijklmnopqrstuvwxyz+
(PID.TID 0000.0001) //                  0.0: .
(PID.TID 0000.0001) // RANGE I (Lo:Hi:Step):(  -1:  92:   1)
(PID.TID 0000.0001) // RANGE J (Lo:Hi:Step):(  42:  -1:  -1)
(PID.TID 0000.0001) // RANGE K (Lo:Hi:Step):(   1:   1:   1)
(PID.TID 0000.0001) // =======================================================
(PID.TID 0000.0001) // =======================================================
(PID.TID 0000.0001) // END OF FIELD                                          =
(PID.TID 0000.0001) // =======================================================
(PID.TID 0000.0001) 
(PID.TID 0000.0001) 
(PID.TID 0000.0001) // ===================================
(PID.TID 0000.0001) // GAD parameters :
(PID.TID 0000.0001) // ===================================
(PID.TID 0000.0001) tempAdvScheme =   /* Temp. Horiz.Advection scheme selector */
(PID.TID 0000.0001)                       2
(PID.TID 0000.0001)     ;
(PID.TID 0000.0001) tempVertAdvScheme =   /* Temp. Vert. Advection scheme selector */
(PID.TID 0000.0001)                       2
(PID.TID 0000.0001)     ;
(PID.TID 0000.0001) tempMultiDimAdvec =   /* use Muti-Dim Advec method for Temp */
(PID.TID 0000.0001)                   F
(PID.TID 0000.0001)     ;
(PID.TID 0000.0001) tempAdamsBashforth =   /* use Adams-Bashforth time-stepping for Temp */
(PID.TID 0000.0001)                   T
(PID.TID 0000.0001)     ;
(PID.TID 0000.0001) saltAdvScheme =   /* Salt. Horiz.advection scheme selector */
(PID.TID 0000.0001)                       2
(PID.TID 0000.0001)     ;
(PID.TID 0000.0001) saltVertAdvScheme =   /* Salt. Vert. Advection scheme selector */
(PID.TID 0000.0001)                       2
(PID.TID 0000.0001)     ;
(PID.TID 0000.0001) saltMultiDimAdvec =   /* use Muti-Dim Advec method for Salt */
(PID.TID 0000.0001)                   F
(PID.TID 0000.0001)     ;
(PID.TID 0000.0001) saltAdamsBashforth =   /* use Adams-Bashforth time-stepping for Salt */
(PID.TID 0000.0001)                   T
(PID.TID 0000.0001)     ;
(PID.TID 0000.0001) // ===================================
(PID.TID 0000.0001) %MON fCori_max                    =   1.4226580169407E-04
(PID.TID 0000.0001) %MON fCori_min                    =  -1.4226580169407E-04
(PID.TID 0000.0001) %MON fCori_mean                   =  -1.9274705288631E-19
(PID.TID 0000.0001) %MON fCori_sd                     =   9.6335367303779E-05
(PID.TID 0000.0001) %MON fCoriG_max                   =   1.4112379284621E-04
(PID.TID 0000.0001) %MON fCoriG_min                   =  -1.4323448157692E-04
(PID.TID 0000.0001) %MON fCoriG_mean                  =  -3.6726790147926E-06
(PID.TID 0000.0001) %MON fCoriG_sd                    =   9.7510077443651E-05
(PID.TID 0000.0001) %MON fCoriCos_max                 =   1.4535550371427E-04
(PID.TID 0000.0001) %MON fCoriCos_min                 =   3.0239529651320E-05
(PID.TID 0000.0001) %MON fCoriCos_mean                =   1.0260497651149E-04
(PID.TID 0000.0001) %MON fCoriCos_sd                  =   3.6683828681187E-05
(PID.TID 0000.0001) // CG2D normalisation factor =          0.8831987737220080357351815E-04
(PID.TID 0000.0001) 
(PID.TID 0000.0001) CONFIG_CHECK: OK
(PID.TID 0000.0001) // =======================================================
(PID.TID 0000.0001) // Model configuration
(PID.TID 0000.0001) // =======================================================
(PID.TID 0000.0001) //
(PID.TID 0000.0001) // "Physical" paramters ( PARM01 in namelist )
(PID.TID 0000.0001) //
(PID.TID 0000.0001) buoyancyRelation = OCEANIC
(PID.TID 0000.0001) fluidIsAir  =  /* fluid major constituent is Air */
(PID.TID 0000.0001)                   F
(PID.TID 0000.0001)     ;
(PID.TID 0000.0001) fluidIsWater=  /* fuild major constituent is Water */
(PID.TID 0000.0001)                   T
(PID.TID 0000.0001)     ;
(PID.TID 0000.0001) usingPCoords =  /* use p (or p*) vertical coordinate */
(PID.TID 0000.0001)                   F
(PID.TID 0000.0001)     ;
(PID.TID 0000.0001) usingZCoords =  /* use z (or z*) vertical coordinate */
(PID.TID 0000.0001)                   T
(PID.TID 0000.0001)     ;
(PID.TID 0000.0001) tRef =   /* Reference temperature profile ( oC or oK ) */
(PID.TID 0000.0001)                 1.600000000000000E+01,      /* K =  1 */
(PID.TID 0000.0001)                 1.520000000000000E+01,      /* K =  2 */
(PID.TID 0000.0001)                 1.450000000000000E+01,      /* K =  3 */
(PID.TID 0000.0001)                 1.390000000000000E+01,      /* K =  4 */
(PID.TID 0000.0001)                 1.330000000000000E+01,      /* K =  5 */
(PID.TID 0000.0001)                 1.240000000000000E+01,      /* K =  6 */
(PID.TID 0000.0001)                 1.130000000000000E+01,      /* K =  7 */
(PID.TID 0000.0001)                 9.900000000000000E+00,      /* K =  8 */
(PID.TID 0000.0001)                 8.400000000000000E+00,      /* K =  9 */
(PID.TID 0000.0001)                 6.700000000000000E+00,      /* K = 10 */
(PID.TID 0000.0001)                 5.200000000000000E+00,      /* K = 11 */
(PID.TID 0000.0001)                 3.800000000000000E+00,      /* K = 12 */
(PID.TID 0000.0001)                 2.900000000000000E+00,      /* K = 13 */
(PID.TID 0000.0001)                 2.300000000000000E+00,      /* K = 14 */
(PID.TID 0000.0001)                 1.800000000000000E+00,      /* K = 15 */
(PID.TID 0000.0001)                 1.500000000000000E+00,      /* K = 16 */
(PID.TID 0000.0001)                 1.100000000000000E+00,      /* K = 17 */
(PID.TID 0000.0001)                 8.000000000000000E-01,      /* K = 18 */
(PID.TID 0000.0001)                 6.600000000000000E-01,      /* K = 19 */
(PID.TID 0000.0001)                 6.300000000000000E-01       /* K = 20 */
(PID.TID 0000.0001)     ;
(PID.TID 0000.0001) sRef =   /* Reference salinity profile ( ppt ) */
(PID.TID 0000.0001)                 3.465000000000000E+01,      /* K =  1 */
(PID.TID 0000.0001)                 3.475000000000000E+01,      /* K =  2 */
(PID.TID 0000.0001)                 3.482000000000000E+01,      /* K =  3 */
(PID.TID 0000.0001)                 3.487000000000000E+01,      /* K =  4 */
(PID.TID 0000.0001)     2 @  3.490000000000000E+01,             /* K =  5:  6 */
(PID.TID 0000.0001)                 3.486000000000000E+01,      /* K =  7 */
(PID.TID 0000.0001)                 3.478000000000000E+01,      /* K =  8 */
(PID.TID 0000.0001)                 3.469000000000000E+01,      /* K =  9 */
(PID.TID 0000.0001)                 3.460000000000000E+01,      /* K = 10 */
(PID.TID 0000.0001)                 3.458000000000000E+01,      /* K = 11 */
(PID.TID 0000.0001)                 3.462000000000000E+01,      /* K = 12 */
(PID.TID 0000.0001)                 3.468000000000000E+01,      /* K = 13 */
(PID.TID 0000.0001)                 3.472000000000000E+01,      /* K = 14 */
(PID.TID 0000.0001)                 3.473000000000000E+01,      /* K = 15 */
(PID.TID 0000.0001)                 3.474000000000000E+01,      /* K = 16 */
(PID.TID 0000.0001)     2 @  3.473000000000000E+01,             /* K = 17: 18 */
(PID.TID 0000.0001)     2 @  3.472000000000000E+01              /* K = 19: 20 */
(PID.TID 0000.0001)     ;
(PID.TID 0000.0001) viscAh =   /* Lateral eddy viscosity ( m^2/s ) */
(PID.TID 0000.0001)                 5.000000000000000E+05
(PID.TID 0000.0001)     ;
(PID.TID 0000.0001) viscAhMax =   /* Maximum lateral eddy viscosity ( m^2/s ) */
(PID.TID 0000.0001)                 1.000000000000000E+21
(PID.TID 0000.0001)     ;
(PID.TID 0000.0001) viscAhGrid =   /* Grid dependent lateral eddy viscosity ( non-dim. ) */
(PID.TID 0000.0001)                 0.000000000000000E+00
(PID.TID 0000.0001)     ;
(PID.TID 0000.0001) viscC2leith =   /* Leith harmonic viscosity factor ( non-dom. ) */
(PID.TID 0000.0001)                 0.000000000000000E+00
(PID.TID 0000.0001)     ;
(PID.TID 0000.0001) viscA4 =   /* Lateral biharmonic viscosity ( m^4/s ) */
(PID.TID 0000.0001)                 0.000000000000000E+00
(PID.TID 0000.0001)     ;
(PID.TID 0000.0001) viscA4Max =   /* Maximum biharmonic viscosity ( m^2/s ) */
(PID.TID 0000.0001)                 1.000000000000000E+21
(PID.TID 0000.0001)     ;
(PID.TID 0000.0001) viscA4Grid =   /* Grid dependent biharmonic viscosity ( non-dim. ) */
(PID.TID 0000.0001)                 0.000000000000000E+00
(PID.TID 0000.0001)     ;
(PID.TID 0000.0001) viscC4leith =   /* Leith biharmonic viscosity factor ( non-dom. ) */
(PID.TID 0000.0001)                 0.000000000000000E+00
(PID.TID 0000.0001)     ;
(PID.TID 0000.0001) no_slip_sides =  /* Viscous BCs: No-slip sides */
(PID.TID 0000.0001)                   F
(PID.TID 0000.0001)     ;
(PID.TID 0000.0001) viscAr =   /* Vertical eddy viscosity ( units of r^2/s ) */
(PID.TID 0000.0001)                 1.000000000000000E-03
(PID.TID 0000.0001)     ;
(PID.TID 0000.0001) no_slip_bottom =  /* Viscous BCs: No-slip bottom */
(PID.TID 0000.0001)                   T
(PID.TID 0000.0001)     ;
(PID.TID 0000.0001) diffKhT =   /* Laplacian diffusion of heat laterally ( m^2/s ) */
(PID.TID 0000.0001)                 1.000000000000000E+03
(PID.TID 0000.0001)     ;
(PID.TID 0000.0001) diffK4T =   /* Bihaarmonic diffusion of heat laterally ( m^4/s ) */
(PID.TID 0000.0001)                 0.000000000000000E+00
(PID.TID 0000.0001)     ;
(PID.TID 0000.0001) diffKhS =   /* Laplacian diffusion of salt laterally ( m^2/s ) */
(PID.TID 0000.0001)                 1.000000000000000E+03
(PID.TID 0000.0001)     ;
(PID.TID 0000.0001) diffK4S =   /* Bihaarmonic diffusion of salt laterally ( m^4/s ) */
(PID.TID 0000.0001)                 0.000000000000000E+00
(PID.TID 0000.0001)     ;
(PID.TID 0000.0001) diffKrNrT = /* vertical profile of vertical diffusion of Temp ( m^2/s )*/
(PID.TID 0000.0001)    20 @  3.000000000000000E-05              /* K =  1: 20 */
(PID.TID 0000.0001)     ;
(PID.TID 0000.0001) diffKrNrS = /* vertical profile of vertical diffusion of Salt ( m^2/s )*/
(PID.TID 0000.0001)    20 @  3.000000000000000E-05              /* K =  1: 20 */
(PID.TID 0000.0001)     ;
(PID.TID 0000.0001) diffKrBL79surf =   /* Surface diffusion for Bryan and Lewis 1979 ( m^2/s ) */
(PID.TID 0000.0001)                 0.000000000000000E+00
(PID.TID 0000.0001)     ;
(PID.TID 0000.0001) diffKrBL79deep =   /* Deep diffusion for Bryan and Lewis 1979 ( m^2/s ) */
(PID.TID 0000.0001)                 0.000000000000000E+00
(PID.TID 0000.0001)     ;
(PID.TID 0000.0001) diffKrBL79scl =   /* Depth scale for Bryan and Lewis 1979 ( m ) */
(PID.TID 0000.0001)                 2.000000000000000E+02
(PID.TID 0000.0001)     ;
(PID.TID 0000.0001) diffKrBL79Ho =   /* Turning depth for Bryan and Lewis 1979 ( m ) */
(PID.TID 0000.0001)                -2.000000000000000E+03
(PID.TID 0000.0001)     ;
(PID.TID 0000.0001)  Equation of State : eosType = LINEAR
(PID.TID 0000.0001) tAlpha =   /* Linear EOS thermal expansion coefficient ( 1/degree ) */
(PID.TID 0000.0001)                 2.000000000000000E-04
(PID.TID 0000.0001)     ;
(PID.TID 0000.0001) sBeta =   /* Linear EOS haline contraction coefficient ( 1/ppt ) */
(PID.TID 0000.0001)                 7.400000000000000E-04
(PID.TID 0000.0001)     ;
(PID.TID 0000.0001) rhonil =   /* Reference density ( kg/m^3 ) */
(PID.TID 0000.0001)                 9.998000000000000E+02
(PID.TID 0000.0001)     ;
(PID.TID 0000.0001) rhoConst =   /* Reference density ( kg/m^3 ) */
(PID.TID 0000.0001)                 9.998000000000000E+02
(PID.TID 0000.0001)     ;
(PID.TID 0000.0001) rhoConstFresh =   /* Reference density ( kg/m^3 ) */
(PID.TID 0000.0001)                 9.998000000000000E+02
(PID.TID 0000.0001)     ;
(PID.TID 0000.0001) gravity =   /* Gravitational acceleration ( m/s^2 ) */
(PID.TID 0000.0001)                 9.810000000000000E+00
(PID.TID 0000.0001)     ;
(PID.TID 0000.0001) gBaro =   /* Barotropic gravity ( m/s^2 ) */
(PID.TID 0000.0001)                 9.810000000000000E+00
(PID.TID 0000.0001)     ;
(PID.TID 0000.0001) rotationPeriod =   /* Rotation Period ( s ) */
(PID.TID 0000.0001)                 8.640000000000000E+04
(PID.TID 0000.0001)     ;
(PID.TID 0000.0001) omega =   /* Angular velocity ( rad/s ) */
(PID.TID 0000.0001)                 7.272205216643040E-05
(PID.TID 0000.0001)     ;
(PID.TID 0000.0001) f0 =   /* Reference coriolis parameter ( 1/s ) */
(PID.TID 0000.0001)                 1.000000000000000E-04
(PID.TID 0000.0001)     ;
(PID.TID 0000.0001) beta =   /* Beta ( 1/(m.s) ) */
(PID.TID 0000.0001)                 9.999999999999999E-12
(PID.TID 0000.0001)     ;
(PID.TID 0000.0001) freeSurfFac =   /* Implicit free surface factor */
(PID.TID 0000.0001)                 1.000000000000000E+00
(PID.TID 0000.0001)     ;
(PID.TID 0000.0001) implicitFreeSurface =   /* Implicit free surface on/off flag */
(PID.TID 0000.0001)                   T
(PID.TID 0000.0001)     ;
(PID.TID 0000.0001) rigidLid =   /* Rigid lid on/off flag */
(PID.TID 0000.0001)                   F
(PID.TID 0000.0001)     ;
(PID.TID 0000.0001) implicSurfPress =   /* Surface Pressure implicit factor (0-1)*/
(PID.TID 0000.0001)                 1.000000000000000E+00
(PID.TID 0000.0001)     ;
(PID.TID 0000.0001) implicDiv2Dflow =   /* Barot. Flow Div. implicit factor (0-1)*/
(PID.TID 0000.0001)                 1.000000000000000E+00
(PID.TID 0000.0001)     ;
(PID.TID 0000.0001) exactConserv =   /* Exact Volume Conservation on/off flag*/
(PID.TID 0000.0001)                   F
(PID.TID 0000.0001)     ;
(PID.TID 0000.0001) uniformLin_PhiSurf =   /* use uniform Bo_surf on/off flag*/
(PID.TID 0000.0001)                   T
(PID.TID 0000.0001)     ;
(PID.TID 0000.0001) nonlinFreeSurf =   /* Non-linear Free Surf. options (-1,0,1,2,3)*/
(PID.TID 0000.0001)                       0
(PID.TID 0000.0001)     ;
(PID.TID 0000.0001)      -1,0= Off ; 1,2,3= On, 2=+rescale gU,gV, 3=+update cg2d solv.
(PID.TID 0000.0001) hFacInf =   /* lower threshold for hFac (nonlinFreeSurf only)*/
(PID.TID 0000.0001)                 2.000000000000000E-01
(PID.TID 0000.0001)     ;
(PID.TID 0000.0001) hFacSup =   /* upper threshold for hFac (nonlinFreeSurf only)*/
(PID.TID 0000.0001)                 2.000000000000000E+00
(PID.TID 0000.0001)     ;
(PID.TID 0000.0001) select_rStar =   /* r* Coordinate options (not yet implemented)*/
(PID.TID 0000.0001)                       0
(PID.TID 0000.0001)     ;
(PID.TID 0000.0001) useRealFreshWaterFlux =   /* Real Fresh Water Flux on/off flag*/
(PID.TID 0000.0001)                   F
(PID.TID 0000.0001)     ;
(PID.TID 0000.0001) convertFW2Salt = /* convert F.W. Flux to Salt Flux (-1=use local S)(ppt)*/
(PID.TID 0000.0001)                 3.500000000000000E+01
(PID.TID 0000.0001)     ;
(PID.TID 0000.0001) nonHydrostatic =  /* Non-Hydrostatic on/off flag */
(PID.TID 0000.0001)                   F
(PID.TID 0000.0001)     ;
(PID.TID 0000.0001) momStepping =  /* Momentum equation on/off flag */
(PID.TID 0000.0001)                   T
(PID.TID 0000.0001)     ;
(PID.TID 0000.0001) momAdvection =  /* Momentum advection on/off flag */
(PID.TID 0000.0001)                   T
(PID.TID 0000.0001)     ;
(PID.TID 0000.0001) momViscosity =  /* Momentum viscosity on/off flag */
(PID.TID 0000.0001)                   T
(PID.TID 0000.0001)     ;
(PID.TID 0000.0001) momImplVertAdv =/* Momentum implicit vert. advection on/off*/
(PID.TID 0000.0001)                   F
(PID.TID 0000.0001)     ;
(PID.TID 0000.0001) implicitViscosity = /* Implicit viscosity on/off flag */
(PID.TID 0000.0001)                   F
(PID.TID 0000.0001)     ;
(PID.TID 0000.0001) useCoriolis =  /* Coriolis on/off flag */
(PID.TID 0000.0001)                   T
(PID.TID 0000.0001)     ;
(PID.TID 0000.0001) useCDscheme =  /* CD scheme on/off flag */
(PID.TID 0000.0001)                   T
(PID.TID 0000.0001)     ;
(PID.TID 0000.0001) useJamartWetPoints= /* Coriolis WetPoints method flag */
(PID.TID 0000.0001)                   F
(PID.TID 0000.0001)     ;
(PID.TID 0000.0001) useJamartMomAdv= /* V.I. Non-linear terms Jamart flag */
(PID.TID 0000.0001)                   F
(PID.TID 0000.0001)     ;
(PID.TID 0000.0001) SadournyCoriolis= /* Sadourny Coriolis discr. flag */
(PID.TID 0000.0001)                   F
(PID.TID 0000.0001)     ;
(PID.TID 0000.0001) upwindVorticity= /* Upwind bias vorticity flag */
(PID.TID 0000.0001)                   F
(PID.TID 0000.0001)     ;
(PID.TID 0000.0001) useAbsVorticity= /* Work with f+zeta in Coriolis */
(PID.TID 0000.0001)                   F
(PID.TID 0000.0001)     ;
(PID.TID 0000.0001) highOrderVorticity= /* High order interp. of vort. flag */
(PID.TID 0000.0001)                   F
(PID.TID 0000.0001)     ;
(PID.TID 0000.0001) momForcing =  /* Momentum forcing on/off flag */
(PID.TID 0000.0001)                   T
(PID.TID 0000.0001)     ;
(PID.TID 0000.0001) momPressureForcing =  /* Momentum pressure term on/off flag */
(PID.TID 0000.0001)                   T
(PID.TID 0000.0001)     ;
(PID.TID 0000.0001) staggerTimeStep =   /* Stagger time stepping on/off flag */
(PID.TID 0000.0001)                   F
(PID.TID 0000.0001)     ;
(PID.TID 0000.0001) multiDimAdvection =   /* enable/disable Multi-Dim Advection */
(PID.TID 0000.0001)                   T
(PID.TID 0000.0001)     ;
(PID.TID 0000.0001) useMultiDimAdvec =   /* Multi-Dim Advection is/is-not used */
(PID.TID 0000.0001)                   F
(PID.TID 0000.0001)     ;
(PID.TID 0000.0001) implicitDiffusion =/* Implicit Diffusion on/off flag */
(PID.TID 0000.0001)                   F
(PID.TID 0000.0001)     ;
(PID.TID 0000.0001) tempStepping =  /* Temperature equation on/off flag */
(PID.TID 0000.0001)                   T
(PID.TID 0000.0001)     ;
(PID.TID 0000.0001) tempAdvection=  /* Temperature advection on/off flag */
(PID.TID 0000.0001)                   T
(PID.TID 0000.0001)     ;
(PID.TID 0000.0001) tempImplVertAdv =/* Temp. implicit vert. advection on/off */
(PID.TID 0000.0001)                   F
(PID.TID 0000.0001)     ;
(PID.TID 0000.0001) tempForcing  =  /* Temperature forcing on/off flag */
(PID.TID 0000.0001)                   T
(PID.TID 0000.0001)     ;
(PID.TID 0000.0001) saltStepping =  /* Salinity equation on/off flag */
(PID.TID 0000.0001)                   T
(PID.TID 0000.0001)     ;
(PID.TID 0000.0001) saltAdvection=  /* Salinity advection on/off flag */
(PID.TID 0000.0001)                   T
(PID.TID 0000.0001)     ;
(PID.TID 0000.0001) saltImplVertAdv =/* Sali. implicit vert. advection on/off */
(PID.TID 0000.0001)                   F
(PID.TID 0000.0001)     ;
(PID.TID 0000.0001) saltForcing  =  /* Salinity forcing on/off flag */
(PID.TID 0000.0001)                   T
(PID.TID 0000.0001)     ;
(PID.TID 0000.0001) //
(PID.TID 0000.0001) // Elliptic solver(s) paramters ( PARM02 in namelist )
(PID.TID 0000.0001) //
(PID.TID 0000.0001) cg2dMaxIters =   /* Upper limit on 2d con. grad iterations  */
(PID.TID 0000.0001)                    1000
(PID.TID 0000.0001)     ;
(PID.TID 0000.0001) cg2dChkResFreq =   /* 2d con. grad convergence test frequency */
(PID.TID 0000.0001)                       1
(PID.TID 0000.0001)     ;
(PID.TID 0000.0001) cg2dTargetResidual =   /* 2d con. grad target residual  */
(PID.TID 0000.0001)                 1.000000000000000E-13
(PID.TID 0000.0001)     ;
(PID.TID 0000.0001) cg2dTargetResWunit =   /* CG2d target residual [W units] */
(PID.TID 0000.0001)                -1.000000000000000E+00
(PID.TID 0000.0001)     ;
(PID.TID 0000.0001) cg2dPreCondFreq =   /* Freq. for updating cg2d preconditioner */
(PID.TID 0000.0001)                       1
(PID.TID 0000.0001)     ;
(PID.TID 0000.0001) //
(PID.TID 0000.0001) // Time stepping paramters ( PARM03 in namelist )
(PID.TID 0000.0001) //
(PID.TID 0000.0001) nIter0 =   /* Base timestep number  */
(PID.TID 0000.0001)                       0
(PID.TID 0000.0001)     ;
(PID.TID 0000.0001) nTimeSteps =   /* Number of timesteps */
(PID.TID 0000.0001)                      26
(PID.TID 0000.0001)     ;
(PID.TID 0000.0001) deltatTmom =   /* Momentum equation timestep ( s ) */
(PID.TID 0000.0001)                 2.400000000000000E+03
(PID.TID 0000.0001)     ;
(PID.TID 0000.0001) deltaTfreesurf =   /* FreeSurface equation timestep ( s ) */
(PID.TID 0000.0001)                 2.400000000000000E+03
(PID.TID 0000.0001)     ;
(PID.TID 0000.0001) dTtracerLev =   /* Tracer equation timestep ( s ) */
(PID.TID 0000.0001)    20 @  1.080000000000000E+05              /* K =  1: 20 */
(PID.TID 0000.0001)     ;
(PID.TID 0000.0001) deltatTClock  =   /* Model clock timestep ( s ) */
(PID.TID 0000.0001)                 1.080000000000000E+05
(PID.TID 0000.0001)     ;
(PID.TID 0000.0001) cAdjFreq =   /* Convective adjustment interval ( s ) */
(PID.TID 0000.0001)                 1.080000000000000E+05
(PID.TID 0000.0001)     ;
(PID.TID 0000.0001) forcing_In_AB =   /* put T,S Forcing in Adams-Bash. stepping */
(PID.TID 0000.0001)                   T
(PID.TID 0000.0001)     ;
(PID.TID 0000.0001) abeps =   /* Adams-Bashforth stabilizing weight */
(PID.TID 0000.0001)                 1.000000000000000E-01
(PID.TID 0000.0001)     ;
(PID.TID 0000.0001) tauCD =   /* CD coupling time-scale ( s ) */
(PID.TID 0000.0001)                 3.214280000000000E+05
(PID.TID 0000.0001)     ;
(PID.TID 0000.0001) rCD =   /* Normalised CD coupling parameter */
(PID.TID 0000.0001)                 9.925333200592357E-01
(PID.TID 0000.0001)     ;
(PID.TID 0000.0001) startTime =   /* Run start time ( s ). */
(PID.TID 0000.0001)                 0.000000000000000E+00
(PID.TID 0000.0001)     ;
(PID.TID 0000.0001) endTime =   /* Integration ending time ( s ). */
(PID.TID 0000.0001)                 2.808000000000000E+06
(PID.TID 0000.0001)     ;
(PID.TID 0000.0001) pChkPtFreq =   /* Permanent restart/checkpoint file interval ( s ). */
(PID.TID 0000.0001)                 0.000000000000000E+00
(PID.TID 0000.0001)     ;
(PID.TID 0000.0001) chkPtFreq =   /* Rolling restart/checkpoint file interval ( s ). */
(PID.TID 0000.0001)                 0.000000000000000E+00
(PID.TID 0000.0001)     ;
(PID.TID 0000.0001) pickup_write_mdsio =   /* Model IO flag. */
(PID.TID 0000.0001)                   T
(PID.TID 0000.0001)     ;
(PID.TID 0000.0001) pickup_read_mdsio =   /* Model IO flag. */
(PID.TID 0000.0001)                   T
(PID.TID 0000.0001)     ;
(PID.TID 0000.0001) pickup_write_immed =   /* Model IO flag. */
(PID.TID 0000.0001)                   F
(PID.TID 0000.0001)     ;
(PID.TID 0000.0001) dumpFreq =   /* Model state write out interval ( s ). */
(PID.TID 0000.0001)                 2.592000000000000E+06
(PID.TID 0000.0001)     ;
(PID.TID 0000.0001) snapshot_mdsio =   /* Model IO flag. */
(PID.TID 0000.0001)                   T
(PID.TID 0000.0001)     ;
(PID.TID 0000.0001) monitorFreq =   /* Monitor output interval ( s ). */
(PID.TID 0000.0001)                 1.000000000000000E+00
(PID.TID 0000.0001)     ;
(PID.TID 0000.0001) monitor_stdio =   /* Model IO flag. */
(PID.TID 0000.0001)                   T
(PID.TID 0000.0001)     ;
(PID.TID 0000.0001) externForcingPeriod =   /* forcing period (s) */
(PID.TID 0000.0001)                 0.000000000000000E+00
(PID.TID 0000.0001)     ;
(PID.TID 0000.0001) externForcingCycle =   /* period of the cyle (s). */
(PID.TID 0000.0001)                 0.000000000000000E+00
(PID.TID 0000.0001)     ;
(PID.TID 0000.0001) tauThetaClimRelax =   /* relaxation time scale (s) */
(PID.TID 0000.0001)                 2.592000000000000E+06
(PID.TID 0000.0001)     ;
(PID.TID 0000.0001) tauSaltClimRelax =   /* relaxation time scale (s) */
(PID.TID 0000.0001)                 2.592000000000000E+06
(PID.TID 0000.0001)     ;
(PID.TID 0000.0001) latBandClimRelax =   /* max. Lat. where relaxation */
(PID.TID 0000.0001)                 1.800000000000000E+02
(PID.TID 0000.0001)     ;
(PID.TID 0000.0001) //
(PID.TID 0000.0001) // Gridding paramters ( PARM04 in namelist )
(PID.TID 0000.0001) //
(PID.TID 0000.0001) usingCartesianGrid =   /* Cartesian coordinates flag ( True / False ) */
(PID.TID 0000.0001)                   F
(PID.TID 0000.0001)     ;
(PID.TID 0000.0001) usingSphericalPolarGrid =   /* Spherical coordinates flag ( True / False ) */
(PID.TID 0000.0001)                   T
(PID.TID 0000.0001)     ;
(PID.TID 0000.0001) usingCylindricalGrid =   /* Spherical coordinates flag ( True / False ) */
(PID.TID 0000.0001)                   F
(PID.TID 0000.0001)     ;
(PID.TID 0000.0001) groundAtK1 =   /* Lower Boundary (ground) at the surface(k=1) ( T / F ) */
(PID.TID 0000.0001)                   F
(PID.TID 0000.0001)     ;
(PID.TID 0000.0001) Ro_SeaLevel =   /* r(1) ( units of r ) */
(PID.TID 0000.0001)                 0.000000000000000E+00
(PID.TID 0000.0001)     ;
(PID.TID 0000.0001) rkFac =   /* minus Vertical index orientation  */
(PID.TID 0000.0001)                 1.000000000000000E+00
(PID.TID 0000.0001)     ;
(PID.TID 0000.0001) horiVertRatio =   /* Ratio on units : Horiz - Vertical */
(PID.TID 0000.0001)                 1.000000000000000E+00
(PID.TID 0000.0001)     ;
(PID.TID 0000.0001) drC =   /* C spacing ( units of r ) */
(PID.TID 0000.0001)                 2.500000000000000E+01,      /* K =  1 */
(PID.TID 0000.0001)                 5.000000000000000E+01,      /* K =  2 */
(PID.TID 0000.0001)                 5.250000000000000E+01,      /* K =  3 */
(PID.TID 0000.0001)                 5.750000000000000E+01,      /* K =  4 */
(PID.TID 0000.0001)                 6.250000000000000E+01,      /* K =  5 */
(PID.TID 0000.0001)                 6.750000000000000E+01,      /* K =  6 */
(PID.TID 0000.0001)                 7.500000000000000E+01,      /* K =  7 */
(PID.TID 0000.0001)                 8.750000000000000E+01,      /* K =  8 */
(PID.TID 0000.0001)                 1.075000000000000E+02,      /* K =  9 */
(PID.TID 0000.0001)                 1.375000000000000E+02,      /* K = 10 */
(PID.TID 0000.0001)                 1.775000000000000E+02,      /* K = 11 */
(PID.TID 0000.0001)                 2.300000000000000E+02,      /* K = 12 */
(PID.TID 0000.0001)                 2.900000000000000E+02,      /* K = 13 */
(PID.TID 0000.0001)                 3.600000000000000E+02,      /* K = 14 */
(PID.TID 0000.0001)                 4.400000000000000E+02,      /* K = 15 */
(PID.TID 0000.0001)                 5.250000000000000E+02,      /* K = 16 */
(PID.TID 0000.0001)                 6.125000000000000E+02,      /* K = 17 */
(PID.TID 0000.0001)                 6.900000000000000E+02,      /* K = 18 */
(PID.TID 0000.0001)                 7.500000000000000E+02,      /* K = 19 */
(PID.TID 0000.0001)                 7.950000000000000E+02       /* K = 20 */
(PID.TID 0000.0001)     ;
(PID.TID 0000.0001) drF =   /* W spacing ( units of r ) */
(PID.TID 0000.0001)     2 @  5.000000000000000E+01,             /* K =  1:  2 */
(PID.TID 0000.0001)                 5.500000000000000E+01,      /* K =  3 */
(PID.TID 0000.0001)                 6.000000000000000E+01,      /* K =  4 */
(PID.TID 0000.0001)                 6.500000000000000E+01,      /* K =  5 */
(PID.TID 0000.0001)                 7.000000000000000E+01,      /* K =  6 */
(PID.TID 0000.0001)                 8.000000000000000E+01,      /* K =  7 */
(PID.TID 0000.0001)                 9.500000000000000E+01,      /* K =  8 */
(PID.TID 0000.0001)                 1.200000000000000E+02,      /* K =  9 */
(PID.TID 0000.0001)                 1.550000000000000E+02,      /* K = 10 */
(PID.TID 0000.0001)                 2.000000000000000E+02,      /* K = 11 */
(PID.TID 0000.0001)                 2.600000000000000E+02,      /* K = 12 */
(PID.TID 0000.0001)                 3.200000000000000E+02,      /* K = 13 */
(PID.TID 0000.0001)                 4.000000000000000E+02,      /* K = 14 */
(PID.TID 0000.0001)                 4.800000000000000E+02,      /* K = 15 */
(PID.TID 0000.0001)                 5.700000000000000E+02,      /* K = 16 */
(PID.TID 0000.0001)                 6.550000000000000E+02,      /* K = 17 */
(PID.TID 0000.0001)                 7.250000000000000E+02,      /* K = 18 */
(PID.TID 0000.0001)                 7.750000000000000E+02,      /* K = 19 */
(PID.TID 0000.0001)                 8.150000000000000E+02       /* K = 20 */
(PID.TID 0000.0001)     ;
(PID.TID 0000.0001) delX =   /* U spacing ( m - cartesian, degrees - spherical ) */
(PID.TID 0000.0001)    90 @  4.000000000000000E+00              /* I =  1: 90 */
(PID.TID 0000.0001)     ;
(PID.TID 0000.0001) delY =   /* V spacing ( m - cartesian, degrees - spherical ) */
(PID.TID 0000.0001)    40 @  4.000000000000000E+00              /* J =  1: 40 */
(PID.TID 0000.0001)     ;
(PID.TID 0000.0001) phiMin =    /* South edge (ignored - cartesian, degrees - spherical ) */
(PID.TID 0000.0001)                -8.000000000000000E+01
(PID.TID 0000.0001)     ;
(PID.TID 0000.0001) thetaMin =    /* West edge ( ignored - cartesian, degrees - spherical ) */
(PID.TID 0000.0001)                 0.000000000000000E+00
(PID.TID 0000.0001)     ;
(PID.TID 0000.0001) rSphere =    /* Radius ( ignored - cartesian, m - spherical ) */
(PID.TID 0000.0001)                 6.370000000000000E+06
(PID.TID 0000.0001)     ;
(PID.TID 0000.0001) xcoord =   /* P-point X coord ( m - cartesian, degrees - spherical ) */
(PID.TID 0000.0001)                 2.000000000000000E+00,      /* I =  1 */
(PID.TID 0000.0001)                 6.000000000000000E+00,      /* I =  2 */
(PID.TID 0000.0001)                 1.000000000000000E+01,      /* I =  3 */
(PID.TID 0000.0001)                 1.400000000000000E+01,      /* I =  4 */
(PID.TID 0000.0001)                 1.800000000000000E+01,      /* I =  5 */
(PID.TID 0000.0001)                 2.200000000000000E+01,      /* I =  6 */
(PID.TID 0000.0001)                 2.600000000000000E+01,      /* I =  7 */
(PID.TID 0000.0001)                 3.000000000000000E+01,      /* I =  8 */
(PID.TID 0000.0001)                 3.400000000000000E+01,      /* I =  9 */
(PID.TID 0000.0001)                 3.800000000000000E+01,      /* I = 10 */
(PID.TID 0000.0001)                 4.200000000000000E+01,      /* I = 11 */
(PID.TID 0000.0001)                 4.600000000000000E+01,      /* I = 12 */
(PID.TID 0000.0001)                 5.000000000000000E+01,      /* I = 13 */
(PID.TID 0000.0001)                 5.400000000000000E+01,      /* I = 14 */
(PID.TID 0000.0001)                 5.800000000000000E+01,      /* I = 15 */
(PID.TID 0000.0001)                 6.200000000000000E+01,      /* I = 16 */
(PID.TID 0000.0001)                 6.600000000000000E+01,      /* I = 17 */
(PID.TID 0000.0001)                 7.000000000000000E+01,      /* I = 18 */
(PID.TID 0000.0001)                 7.400000000000000E+01,      /* I = 19 */
(PID.TID 0000.0001)                 7.800000000000000E+01,      /* I = 20 */
(PID.TID 0000.0001)                 8.200000000000000E+01,      /* I = 21 */
(PID.TID 0000.0001)                 8.600000000000000E+01,      /* I = 22 */
(PID.TID 0000.0001)                 9.000000000000000E+01,      /* I = 23 */
(PID.TID 0000.0001)                 9.400000000000000E+01,      /* I = 24 */
(PID.TID 0000.0001)                 9.800000000000000E+01,      /* I = 25 */
(PID.TID 0000.0001)                 1.020000000000000E+02,      /* I = 26 */
(PID.TID 0000.0001)                 1.060000000000000E+02,      /* I = 27 */
(PID.TID 0000.0001)                 1.100000000000000E+02,      /* I = 28 */
(PID.TID 0000.0001)                 1.140000000000000E+02,      /* I = 29 */
(PID.TID 0000.0001)                 1.180000000000000E+02,      /* I = 30 */
(PID.TID 0000.0001)                 1.220000000000000E+02,      /* I = 31 */
(PID.TID 0000.0001)                 1.260000000000000E+02,      /* I = 32 */
(PID.TID 0000.0001)                 1.300000000000000E+02,      /* I = 33 */
(PID.TID 0000.0001)                 1.340000000000000E+02,      /* I = 34 */
(PID.TID 0000.0001)                 1.380000000000000E+02,      /* I = 35 */
(PID.TID 0000.0001)                 1.420000000000000E+02,      /* I = 36 */
(PID.TID 0000.0001)                 1.460000000000000E+02,      /* I = 37 */
(PID.TID 0000.0001)                 1.500000000000000E+02,      /* I = 38 */
(PID.TID 0000.0001)                 1.540000000000000E+02,      /* I = 39 */
(PID.TID 0000.0001)                 1.580000000000000E+02,      /* I = 40 */
(PID.TID 0000.0001)                 1.620000000000000E+02,      /* I = 41 */
(PID.TID 0000.0001)                 1.660000000000000E+02,      /* I = 42 */
(PID.TID 0000.0001)                 1.700000000000000E+02,      /* I = 43 */
(PID.TID 0000.0001)                 1.740000000000000E+02,      /* I = 44 */
(PID.TID 0000.0001)                 1.780000000000000E+02,      /* I = 45 */
(PID.TID 0000.0001)                 1.820000000000000E+02,      /* I = 46 */
(PID.TID 0000.0001)                 1.860000000000000E+02,      /* I = 47 */
(PID.TID 0000.0001)                 1.900000000000000E+02,      /* I = 48 */
(PID.TID 0000.0001)                 1.940000000000000E+02,      /* I = 49 */
(PID.TID 0000.0001)                 1.980000000000000E+02,      /* I = 50 */
(PID.TID 0000.0001)                 2.020000000000000E+02,      /* I = 51 */
(PID.TID 0000.0001)                 2.060000000000000E+02,      /* I = 52 */
(PID.TID 0000.0001)                 2.100000000000000E+02,      /* I = 53 */
(PID.TID 0000.0001)                 2.140000000000000E+02,      /* I = 54 */
(PID.TID 0000.0001)                 2.180000000000000E+02,      /* I = 55 */
(PID.TID 0000.0001)                 2.220000000000000E+02,      /* I = 56 */
(PID.TID 0000.0001)                 2.260000000000000E+02,      /* I = 57 */
(PID.TID 0000.0001)                 2.300000000000000E+02,      /* I = 58 */
(PID.TID 0000.0001)                 2.340000000000000E+02,      /* I = 59 */
(PID.TID 0000.0001)                 2.380000000000000E+02,      /* I = 60 */
(PID.TID 0000.0001)                 2.420000000000000E+02,      /* I = 61 */
(PID.TID 0000.0001)                 2.460000000000000E+02,      /* I = 62 */
(PID.TID 0000.0001)                 2.500000000000000E+02,      /* I = 63 */
(PID.TID 0000.0001)                 2.540000000000000E+02,      /* I = 64 */
(PID.TID 0000.0001)                 2.580000000000000E+02,      /* I = 65 */
(PID.TID 0000.0001)                 2.620000000000000E+02,      /* I = 66 */
(PID.TID 0000.0001)                 2.660000000000000E+02,      /* I = 67 */
(PID.TID 0000.0001)                 2.700000000000000E+02,      /* I = 68 */
(PID.TID 0000.0001)                 2.740000000000000E+02,      /* I = 69 */
(PID.TID 0000.0001)                 2.780000000000000E+02,      /* I = 70 */
(PID.TID 0000.0001)                 2.820000000000000E+02,      /* I = 71 */
(PID.TID 0000.0001)                 2.860000000000000E+02,      /* I = 72 */
(PID.TID 0000.0001)                 2.900000000000000E+02,      /* I = 73 */
(PID.TID 0000.0001)                 2.940000000000000E+02,      /* I = 74 */
(PID.TID 0000.0001)                 2.980000000000000E+02,      /* I = 75 */
(PID.TID 0000.0001)                 3.020000000000000E+02,      /* I = 76 */
(PID.TID 0000.0001)                 3.060000000000000E+02,      /* I = 77 */
(PID.TID 0000.0001)                 3.100000000000000E+02,      /* I = 78 */
(PID.TID 0000.0001)                 3.140000000000000E+02,      /* I = 79 */
(PID.TID 0000.0001)                 3.180000000000000E+02,      /* I = 80 */
(PID.TID 0000.0001)                 3.220000000000000E+02,      /* I = 81 */
(PID.TID 0000.0001)                 3.260000000000000E+02,      /* I = 82 */
(PID.TID 0000.0001)                 3.300000000000000E+02,      /* I = 83 */
(PID.TID 0000.0001)                 3.340000000000000E+02,      /* I = 84 */
(PID.TID 0000.0001)                 3.380000000000000E+02,      /* I = 85 */
(PID.TID 0000.0001)                 3.420000000000000E+02,      /* I = 86 */
(PID.TID 0000.0001)                 3.460000000000000E+02,      /* I = 87 */
(PID.TID 0000.0001)                 3.500000000000000E+02,      /* I = 88 */
(PID.TID 0000.0001)                 3.540000000000000E+02,      /* I = 89 */
(PID.TID 0000.0001)                 3.580000000000000E+02       /* I = 90 */
(PID.TID 0000.0001)     ;
(PID.TID 0000.0001) ycoord =   /* P-point Y coord ( m - cartesian, degrees - spherical ) */
(PID.TID 0000.0001)                -7.800000000000000E+01,      /* J =  1 */
(PID.TID 0000.0001)                -7.400000000000000E+01,      /* J =  2 */
(PID.TID 0000.0001)                -7.000000000000000E+01,      /* J =  3 */
(PID.TID 0000.0001)                -6.600000000000000E+01,      /* J =  4 */
(PID.TID 0000.0001)                -6.200000000000000E+01,      /* J =  5 */
(PID.TID 0000.0001)                -5.800000000000000E+01,      /* J =  6 */
(PID.TID 0000.0001)                -5.400000000000000E+01,      /* J =  7 */
(PID.TID 0000.0001)                -5.000000000000000E+01,      /* J =  8 */
(PID.TID 0000.0001)                -4.600000000000000E+01,      /* J =  9 */
(PID.TID 0000.0001)                -4.200000000000000E+01,      /* J = 10 */
(PID.TID 0000.0001)                -3.800000000000000E+01,      /* J = 11 */
(PID.TID 0000.0001)                -3.400000000000000E+01,      /* J = 12 */
(PID.TID 0000.0001)                -3.000000000000000E+01,      /* J = 13 */
(PID.TID 0000.0001)                -2.600000000000000E+01,      /* J = 14 */
(PID.TID 0000.0001)                -2.200000000000000E+01,      /* J = 15 */
(PID.TID 0000.0001)                -1.800000000000000E+01,      /* J = 16 */
(PID.TID 0000.0001)                -1.400000000000000E+01,      /* J = 17 */
(PID.TID 0000.0001)                -1.000000000000000E+01,      /* J = 18 */
(PID.TID 0000.0001)                -6.000000000000000E+00,      /* J = 19 */
(PID.TID 0000.0001)                -2.000000000000000E+00,      /* J = 20 */
(PID.TID 0000.0001)                 2.000000000000000E+00,      /* J = 21 */
(PID.TID 0000.0001)                 6.000000000000000E+00,      /* J = 22 */
(PID.TID 0000.0001)                 1.000000000000000E+01,      /* J = 23 */
(PID.TID 0000.0001)                 1.400000000000000E+01,      /* J = 24 */
(PID.TID 0000.0001)                 1.800000000000000E+01,      /* J = 25 */
(PID.TID 0000.0001)                 2.200000000000000E+01,      /* J = 26 */
(PID.TID 0000.0001)                 2.600000000000000E+01,      /* J = 27 */
(PID.TID 0000.0001)                 3.000000000000000E+01,      /* J = 28 */
(PID.TID 0000.0001)                 3.400000000000000E+01,      /* J = 29 */
(PID.TID 0000.0001)                 3.800000000000000E+01,      /* J = 30 */
(PID.TID 0000.0001)                 4.200000000000000E+01,      /* J = 31 */
(PID.TID 0000.0001)                 4.600000000000000E+01,      /* J = 32 */
(PID.TID 0000.0001)                 5.000000000000000E+01,      /* J = 33 */
(PID.TID 0000.0001)                 5.400000000000000E+01,      /* J = 34 */
(PID.TID 0000.0001)                 5.800000000000000E+01,      /* J = 35 */
(PID.TID 0000.0001)                 6.200000000000000E+01,      /* J = 36 */
(PID.TID 0000.0001)                 6.600000000000000E+01,      /* J = 37 */
(PID.TID 0000.0001)                 7.000000000000000E+01,      /* J = 38 */
(PID.TID 0000.0001)                 7.400000000000000E+01,      /* J = 39 */
(PID.TID 0000.0001)                 7.800000000000000E+01       /* J = 40 */
(PID.TID 0000.0001)     ;
(PID.TID 0000.0001) rcoord =   /* P-point R coordinate (  units of r ) */
(PID.TID 0000.0001)                -2.500000000000000E+01,      /* K =  1 */
(PID.TID 0000.0001)                -7.500000000000000E+01,      /* K =  2 */
(PID.TID 0000.0001)                -1.275000000000000E+02,      /* K =  3 */
(PID.TID 0000.0001)                -1.850000000000000E+02,      /* K =  4 */
(PID.TID 0000.0001)                -2.475000000000000E+02,      /* K =  5 */
(PID.TID 0000.0001)                -3.150000000000000E+02,      /* K =  6 */
(PID.TID 0000.0001)                -3.900000000000000E+02,      /* K =  7 */
(PID.TID 0000.0001)                -4.775000000000000E+02,      /* K =  8 */
(PID.TID 0000.0001)                -5.850000000000000E+02,      /* K =  9 */
(PID.TID 0000.0001)                -7.225000000000000E+02,      /* K = 10 */
(PID.TID 0000.0001)                -9.000000000000000E+02,      /* K = 11 */
(PID.TID 0000.0001)                -1.130000000000000E+03,      /* K = 12 */
(PID.TID 0000.0001)                -1.420000000000000E+03,      /* K = 13 */
(PID.TID 0000.0001)                -1.780000000000000E+03,      /* K = 14 */
(PID.TID 0000.0001)                -2.220000000000000E+03,      /* K = 15 */
(PID.TID 0000.0001)                -2.745000000000000E+03,      /* K = 16 */
(PID.TID 0000.0001)                -3.357500000000000E+03,      /* K = 17 */
(PID.TID 0000.0001)                -4.047500000000000E+03,      /* K = 18 */
(PID.TID 0000.0001)                -4.797500000000000E+03,      /* K = 19 */
(PID.TID 0000.0001)                -5.592500000000000E+03       /* K = 20 */
(PID.TID 0000.0001)     ;
(PID.TID 0000.0001) rF =   /* W-Interf. R coordinate (  units of r ) */
(PID.TID 0000.0001)                 0.000000000000000E+00,      /* K =  1 */
(PID.TID 0000.0001)                -5.000000000000000E+01,      /* K =  2 */
(PID.TID 0000.0001)                -1.000000000000000E+02,      /* K =  3 */
(PID.TID 0000.0001)                -1.550000000000000E+02,      /* K =  4 */
(PID.TID 0000.0001)                -2.150000000000000E+02,      /* K =  5 */
(PID.TID 0000.0001)                -2.800000000000000E+02,      /* K =  6 */
(PID.TID 0000.0001)                -3.500000000000000E+02,      /* K =  7 */
(PID.TID 0000.0001)                -4.300000000000000E+02,      /* K =  8 */
(PID.TID 0000.0001)                -5.250000000000000E+02,      /* K =  9 */
(PID.TID 0000.0001)                -6.450000000000000E+02,      /* K = 10 */
(PID.TID 0000.0001)                -8.000000000000000E+02,      /* K = 11 */
(PID.TID 0000.0001)                -1.000000000000000E+03,      /* K = 12 */
(PID.TID 0000.0001)                -1.260000000000000E+03,      /* K = 13 */
(PID.TID 0000.0001)                -1.580000000000000E+03,      /* K = 14 */
(PID.TID 0000.0001)                -1.980000000000000E+03,      /* K = 15 */
(PID.TID 0000.0001)                -2.460000000000000E+03,      /* K = 16 */
(PID.TID 0000.0001)                -3.030000000000000E+03,      /* K = 17 */
(PID.TID 0000.0001)                -3.685000000000000E+03,      /* K = 18 */
(PID.TID 0000.0001)                -4.410000000000000E+03,      /* K = 19 */
(PID.TID 0000.0001)                -5.185000000000000E+03,      /* K = 20 */
(PID.TID 0000.0001)                -6.000000000000000E+03       /* K = 21 */
(PID.TID 0000.0001)     ;
(PID.TID 0000.0001) dxF =  /* dxF(:,1,:,1) ( m - cartesian, degrees - spherical ) */
(PID.TID 0000.0001)    90 @  9.246038586187513E+04              /* I =  1: 90 */
(PID.TID 0000.0001)     ;
(PID.TID 0000.0001) dxF =  /* dxF(1,:,1,:) ( m - cartesian, degrees - spherical ) */
(PID.TID 0000.0001)                 9.246038586187513E+04,      /* J =  1 */
(PID.TID 0000.0001)                 1.225786591246834E+05,      /* J =  2 */
(PID.TID 0000.0001)                 1.520997414818001E+05,      /* J =  3 */
(PID.TID 0000.0001)                 1.808798091874300E+05,      /* J =  4 */
(PID.TID 0000.0001)                 2.087786486446736E+05,      /* J =  5 */
(PID.TID 0000.0001)                 2.356603395120765E+05,      /* J =  6 */
(PID.TID 0000.0001)                 2.613939168938713E+05,      /* J =  7 */
(PID.TID 0000.0001)                 2.858540093877838E+05,      /* J =  8 */
(PID.TID 0000.0001)                 3.089214498819034E+05,      /* J =  9 */
(PID.TID 0000.0001)                 3.304838561248741E+05,      /* J = 10 */
(PID.TID 0000.0001)                 3.504361782409254E+05,      /* J = 11 */
(PID.TID 0000.0001)                 3.686812105223082E+05,      /* J = 12 */
(PID.TID 0000.0001)                 3.851300650057323E+05,      /* J = 13 */
(PID.TID 0000.0001)                 3.997026045255871E+05,      /* J = 14 */
(PID.TID 0000.0001)                 4.123278331341585E+05,      /* J = 15 */
(PID.TID 0000.0001)                 4.229442419867491E+05,      /* J = 16 */
(PID.TID 0000.0001)                 4.315001090065870E+05,      /* J = 17 */
(PID.TID 0000.0001)                 4.379537508695838E+05,      /* J = 18 */
(PID.TID 0000.0001)                 4.422737260813012E+05,      /* J = 19 */
(PID.TID 0000.0001)     2 @  4.444389881567502E+05,             /* J = 20: 21 */
(PID.TID 0000.0001)                 4.422737260813012E+05,      /* J = 22 */
(PID.TID 0000.0001)                 4.379537508695838E+05,      /* J = 23 */
(PID.TID 0000.0001)                 4.315001090065870E+05,      /* J = 24 */
(PID.TID 0000.0001)                 4.229442419867491E+05,      /* J = 25 */
(PID.TID 0000.0001)                 4.123278331341585E+05,      /* J = 26 */
(PID.TID 0000.0001)                 3.997026045255871E+05,      /* J = 27 */
(PID.TID 0000.0001)                 3.851300650057323E+05,      /* J = 28 */
(PID.TID 0000.0001)                 3.686812105223082E+05,      /* J = 29 */
(PID.TID 0000.0001)                 3.504361782409254E+05,      /* J = 30 */
(PID.TID 0000.0001)                 3.304838561248741E+05,      /* J = 31 */
(PID.TID 0000.0001)                 3.089214498819034E+05,      /* J = 32 */
(PID.TID 0000.0001)                 2.858540093877838E+05,      /* J = 33 */
(PID.TID 0000.0001)                 2.613939168938713E+05,      /* J = 34 */
(PID.TID 0000.0001)                 2.356603395120765E+05,      /* J = 35 */
(PID.TID 0000.0001)                 2.087786486446736E+05,      /* J = 36 */
(PID.TID 0000.0001)                 1.808798091874300E+05,      /* J = 37 */
(PID.TID 0000.0001)                 1.520997414818001E+05,      /* J = 38 */
(PID.TID 0000.0001)                 1.225786591246834E+05,      /* J = 39 */
(PID.TID 0000.0001)                 9.246038586187513E+04       /* J = 40 */
(PID.TID 0000.0001)     ;
(PID.TID 0000.0001) dyF =  /* dyF(:,1,:,1) ( m - cartesian, degrees - spherical ) */
(PID.TID 0000.0001)    90 @  4.447098934081552E+05              /* I =  1: 90 */
(PID.TID 0000.0001)     ;
(PID.TID 0000.0001) dyF =  /* dyF(1,:,1,:) ( m - cartesian, degrees - spherical ) */
(PID.TID 0000.0001)    40 @  4.447098934081552E+05              /* J =  1: 40 */
(PID.TID 0000.0001)     ;
(PID.TID 0000.0001) dxG =  /* dxG(:,1,:,1) ( m - cartesian, degrees - spherical ) */
(PID.TID 0000.0001)    90 @  7.722306258078101E+04              /* I =  1: 90 */
(PID.TID 0000.0001)     ;
(PID.TID 0000.0001) dxG =  /* dxG(1,:,1,:) ( m - cartesian, degrees - spherical ) */
(PID.TID 0000.0001)                 7.722306258078101E+04,      /* J =  1 */
(PID.TID 0000.0001)                 1.075850604052271E+05,      /* J =  2 */
(PID.TID 0000.0001)                 1.374229146297914E+05,      /* J =  3 */
(PID.TID 0000.0001)                 1.665912582279823E+05,      /* J =  4 */
(PID.TID 0000.0001)                 1.949479859617814E+05,      /* J =  5 */
(PID.TID 0000.0001)                 2.223549467040777E+05,      /* J =  6 */
(PID.TID 0000.0001)                 2.486786164970726E+05,      /* J =  7 */
(PID.TID 0000.0001)                 2.737907490675810E+05,      /* J =  8 */
(PID.TID 0000.0001)                 2.975690006299821E+05,      /* J =  9 */
(PID.TID 0000.0001)                 3.198975259328452E+05,      /* J = 10 */
(PID.TID 0000.0001)                 3.406675426453503E+05,      /* J = 11 */
(PID.TID 0000.0001)                 3.597778613338690E+05,      /* J = 12 */
(PID.TID 0000.0001)                 3.771353784467131E+05,      /* J = 13 */
(PID.TID 0000.0001)                 3.926555299052806E+05,      /* J = 14 */
(PID.TID 0000.0001)                 4.062627030917454E+05,      /* J = 15 */
(PID.TID 0000.0001)                 4.178906052261313E+05,      /* J = 16 */
(PID.TID 0000.0001)                 4.274825863380723E+05,      /* J = 17 */
(PID.TID 0000.0001)                 4.349919152597734E+05,      /* J = 18 */
(PID.TID 0000.0001)                 4.403820072955634E+05,      /* J = 19 */
(PID.TID 0000.0001)                 4.436266024588540E+05,      /* J = 20 */
(PID.TID 0000.0001)                 4.447098934081552E+05,      /* J = 21 */
(PID.TID 0000.0001)                 4.436266024588540E+05,      /* J = 22 */
(PID.TID 0000.0001)                 4.403820072955634E+05,      /* J = 23 */
(PID.TID 0000.0001)                 4.349919152597734E+05,      /* J = 24 */
(PID.TID 0000.0001)                 4.274825863380723E+05,      /* J = 25 */
(PID.TID 0000.0001)                 4.178906052261313E+05,      /* J = 26 */
(PID.TID 0000.0001)                 4.062627030917454E+05,      /* J = 27 */
(PID.TID 0000.0001)                 3.926555299052806E+05,      /* J = 28 */
(PID.TID 0000.0001)                 3.771353784467131E+05,      /* J = 29 */
(PID.TID 0000.0001)                 3.597778613338690E+05,      /* J = 30 */
(PID.TID 0000.0001)                 3.406675426453503E+05,      /* J = 31 */
(PID.TID 0000.0001)                 3.198975259328452E+05,      /* J = 32 */
(PID.TID 0000.0001)                 2.975690006299821E+05,      /* J = 33 */
(PID.TID 0000.0001)                 2.737907490675810E+05,      /* J = 34 */
(PID.TID 0000.0001)                 2.486786164970726E+05,      /* J = 35 */
(PID.TID 0000.0001)                 2.223549467040777E+05,      /* J = 36 */
(PID.TID 0000.0001)                 1.949479859617814E+05,      /* J = 37 */
(PID.TID 0000.0001)                 1.665912582279823E+05,      /* J = 38 */
(PID.TID 0000.0001)                 1.374229146297914E+05,      /* J = 39 */
(PID.TID 0000.0001)                 1.075850604052271E+05       /* J = 40 */
(PID.TID 0000.0001)     ;
(PID.TID 0000.0001) dyG =  /* dyG(:,1,:,1) ( m - cartesian, degrees - spherical ) */
(PID.TID 0000.0001)    90 @  4.447098934081552E+05              /* I =  1: 90 */
(PID.TID 0000.0001)     ;
(PID.TID 0000.0001) dyG =  /* dyG(1,:,1,:) ( m - cartesian, degrees - spherical ) */
(PID.TID 0000.0001)    40 @  4.447098934081552E+05              /* J =  1: 40 */
(PID.TID 0000.0001)     ;
(PID.TID 0000.0001) dxC =  /* dxC(:,1,:,1) ( m - cartesian, degrees - spherical ) */
(PID.TID 0000.0001)    90 @  9.246038586187513E+04              /* I =  1: 90 */
(PID.TID 0000.0001)     ;
(PID.TID 0000.0001) dxC =  /* dxC(1,:,1,:) ( m - cartesian, degrees - spherical ) */
(PID.TID 0000.0001)                 9.246038586187513E+04,      /* J =  1 */
(PID.TID 0000.0001)                 1.225786591246834E+05,      /* J =  2 */
(PID.TID 0000.0001)                 1.520997414818001E+05,      /* J =  3 */
(PID.TID 0000.0001)                 1.808798091874300E+05,      /* J =  4 */
(PID.TID 0000.0001)                 2.087786486446736E+05,      /* J =  5 */
(PID.TID 0000.0001)                 2.356603395120765E+05,      /* J =  6 */
(PID.TID 0000.0001)                 2.613939168938713E+05,      /* J =  7 */
(PID.TID 0000.0001)                 2.858540093877838E+05,      /* J =  8 */
(PID.TID 0000.0001)                 3.089214498819034E+05,      /* J =  9 */
(PID.TID 0000.0001)                 3.304838561248741E+05,      /* J = 10 */
(PID.TID 0000.0001)                 3.504361782409254E+05,      /* J = 11 */
(PID.TID 0000.0001)                 3.686812105223082E+05,      /* J = 12 */
(PID.TID 0000.0001)                 3.851300650057323E+05,      /* J = 13 */
(PID.TID 0000.0001)                 3.997026045255871E+05,      /* J = 14 */
(PID.TID 0000.0001)                 4.123278331341585E+05,      /* J = 15 */
(PID.TID 0000.0001)                 4.229442419867491E+05,      /* J = 16 */
(PID.TID 0000.0001)                 4.315001090065870E+05,      /* J = 17 */
(PID.TID 0000.0001)                 4.379537508695838E+05,      /* J = 18 */
(PID.TID 0000.0001)                 4.422737260813012E+05,      /* J = 19 */
(PID.TID 0000.0001)     2 @  4.444389881567502E+05,             /* J = 20: 21 */
(PID.TID 0000.0001)                 4.422737260813012E+05,      /* J = 22 */
(PID.TID 0000.0001)                 4.379537508695838E+05,      /* J = 23 */
(PID.TID 0000.0001)                 4.315001090065870E+05,      /* J = 24 */
(PID.TID 0000.0001)                 4.229442419867491E+05,      /* J = 25 */
(PID.TID 0000.0001)                 4.123278331341585E+05,      /* J = 26 */
(PID.TID 0000.0001)                 3.997026045255871E+05,      /* J = 27 */
(PID.TID 0000.0001)                 3.851300650057323E+05,      /* J = 28 */
(PID.TID 0000.0001)                 3.686812105223082E+05,      /* J = 29 */
(PID.TID 0000.0001)                 3.504361782409254E+05,      /* J = 30 */
(PID.TID 0000.0001)                 3.304838561248741E+05,      /* J = 31 */
(PID.TID 0000.0001)                 3.089214498819034E+05,      /* J = 32 */
(PID.TID 0000.0001)                 2.858540093877838E+05,      /* J = 33 */
(PID.TID 0000.0001)                 2.613939168938713E+05,      /* J = 34 */
(PID.TID 0000.0001)                 2.356603395120765E+05,      /* J = 35 */
(PID.TID 0000.0001)                 2.087786486446736E+05,      /* J = 36 */
(PID.TID 0000.0001)                 1.808798091874300E+05,      /* J = 37 */
(PID.TID 0000.0001)                 1.520997414818001E+05,      /* J = 38 */
(PID.TID 0000.0001)                 1.225786591246834E+05,      /* J = 39 */
(PID.TID 0000.0001)                 9.246038586187513E+04       /* J = 40 */
(PID.TID 0000.0001)     ;
(PID.TID 0000.0001) dyC =  /* dyC(:,1,:,1) ( m - cartesian, degrees - spherical ) */
(PID.TID 0000.0001)    90 @  4.447098934081552E+05              /* I =  1: 90 */
(PID.TID 0000.0001)     ;
(PID.TID 0000.0001) dyC =  /* dyC(1,:,1,:) ( m - cartesian, degrees - spherical ) */
(PID.TID 0000.0001)    40 @  4.447098934081552E+05              /* J =  1: 40 */
(PID.TID 0000.0001)     ;
(PID.TID 0000.0001) dxV =  /* dxV(:,1,:,1) ( m - cartesian, degrees - spherical ) */
(PID.TID 0000.0001)    90 @  7.722306258078101E+04              /* I =  1: 90 */
(PID.TID 0000.0001)     ;
(PID.TID 0000.0001) dxV =  /* dxV(1,:,1,:) ( m - cartesian, degrees - spherical ) */
(PID.TID 0000.0001)                 7.722306258078101E+04,      /* J =  1 */
(PID.TID 0000.0001)                 1.075850604052271E+05,      /* J =  2 */
(PID.TID 0000.0001)                 1.374229146297914E+05,      /* J =  3 */
(PID.TID 0000.0001)                 1.665912582279823E+05,      /* J =  4 */
(PID.TID 0000.0001)                 1.949479859617814E+05,      /* J =  5 */
(PID.TID 0000.0001)                 2.223549467040777E+05,      /* J =  6 */
(PID.TID 0000.0001)                 2.486786164970726E+05,      /* J =  7 */
(PID.TID 0000.0001)                 2.737907490675810E+05,      /* J =  8 */
(PID.TID 0000.0001)                 2.975690006299821E+05,      /* J =  9 */
(PID.TID 0000.0001)                 3.198975259328452E+05,      /* J = 10 */
(PID.TID 0000.0001)                 3.406675426453503E+05,      /* J = 11 */
(PID.TID 0000.0001)                 3.597778613338690E+05,      /* J = 12 */
(PID.TID 0000.0001)                 3.771353784467131E+05,      /* J = 13 */
(PID.TID 0000.0001)                 3.926555299052806E+05,      /* J = 14 */
(PID.TID 0000.0001)                 4.062627030917454E+05,      /* J = 15 */
(PID.TID 0000.0001)                 4.178906052261313E+05,      /* J = 16 */
(PID.TID 0000.0001)                 4.274825863380723E+05,      /* J = 17 */
(PID.TID 0000.0001)                 4.349919152597734E+05,      /* J = 18 */
(PID.TID 0000.0001)                 4.403820072955634E+05,      /* J = 19 */
(PID.TID 0000.0001)                 4.436266024588540E+05,      /* J = 20 */
(PID.TID 0000.0001)                 4.447098934081552E+05,      /* J = 21 */
(PID.TID 0000.0001)                 4.436266024588540E+05,      /* J = 22 */
(PID.TID 0000.0001)                 4.403820072955634E+05,      /* J = 23 */
(PID.TID 0000.0001)                 4.349919152597734E+05,      /* J = 24 */
(PID.TID 0000.0001)                 4.274825863380723E+05,      /* J = 25 */
(PID.TID 0000.0001)                 4.178906052261313E+05,      /* J = 26 */
(PID.TID 0000.0001)                 4.062627030917454E+05,      /* J = 27 */
(PID.TID 0000.0001)                 3.926555299052806E+05,      /* J = 28 */
(PID.TID 0000.0001)                 3.771353784467131E+05,      /* J = 29 */
(PID.TID 0000.0001)                 3.597778613338690E+05,      /* J = 30 */
(PID.TID 0000.0001)                 3.406675426453503E+05,      /* J = 31 */
(PID.TID 0000.0001)                 3.198975259328452E+05,      /* J = 32 */
(PID.TID 0000.0001)                 2.975690006299821E+05,      /* J = 33 */
(PID.TID 0000.0001)                 2.737907490675810E+05,      /* J = 34 */
(PID.TID 0000.0001)                 2.486786164970726E+05,      /* J = 35 */
(PID.TID 0000.0001)                 2.223549467040777E+05,      /* J = 36 */
(PID.TID 0000.0001)                 1.949479859617814E+05,      /* J = 37 */
(PID.TID 0000.0001)                 1.665912582279823E+05,      /* J = 38 */
(PID.TID 0000.0001)                 1.374229146297914E+05,      /* J = 39 */
(PID.TID 0000.0001)                 1.075850604052271E+05       /* J = 40 */
(PID.TID 0000.0001)     ;
(PID.TID 0000.0001) dyU =  /* dyU(:,1,:,1) ( m - cartesian, degrees - spherical ) */
(PID.TID 0000.0001)    90 @  4.447098934081552E+05              /* I =  1: 90 */
(PID.TID 0000.0001)     ;
(PID.TID 0000.0001) dyU =  /* dyU(1,:,1,:) ( m - cartesian, degrees - spherical ) */
(PID.TID 0000.0001)    40 @  4.447098934081552E+05              /* J =  1: 40 */
(PID.TID 0000.0001)     ;
(PID.TID 0000.0001) rA =  /* rA(:,1,:,1) ( m - cartesian, degrees - spherical ) */
(PID.TID 0000.0001)    90 @  4.110969866729047E+10              /* I =  1: 90 */
(PID.TID 0000.0001)     ;
(PID.TID 0000.0001) rA =  /* rA(1,:,1,:) ( m - cartesian, degrees - spherical ) */
(PID.TID 0000.0001)                 4.110969866729047E+10,      /* J =  1 */
(PID.TID 0000.0001)                 5.450087291636665E+10,      /* J =  2 */
(PID.TID 0000.0001)                 6.762652439100235E+10,      /* J =  3 */
(PID.TID 0000.0001)                 8.042270623659998E+10,      /* J =  4 */
(PID.TID 0000.0001)                 9.282707674147523E+10,      /* J =  5 */
(PID.TID 0000.0001)                 1.047792030594103E+11,      /* J =  6 */
(PID.TID 0000.0001)                 1.162208556324093E+11,      /* J =  7 */
(PID.TID 0000.0001)                 1.270962918792468E+11,      /* J =  8 */
(PID.TID 0000.0001)                 1.373525277677229E+11,      /* J =  9 */
(PID.TID 0000.0001)                 1.469395959475426E+11,      /* J = 10 */
(PID.TID 0000.0001)                 1.558107891862220E+11,      /* J = 11 */
(PID.TID 0000.0001)                 1.639228879220326E+11,      /* J = 12 */
(PID.TID 0000.0001)                 1.712363708253573E+11,      /* J = 13 */
(PID.TID 0000.0001)                 1.777156073426415E+11,      /* J = 14 */
(PID.TID 0000.0001)                 1.833290312848623E+11,      /* J = 15 */
(PID.TID 0000.0001)                 1.880492946148330E+11,      /* J = 16 */
(PID.TID 0000.0001)                 1.918534006840893E+11,      /* J = 17 */
(PID.TID 0000.0001)                 1.947228162702492E+11,      /* J = 18 */
(PID.TID 0000.0001)                 1.966435618690094E+11,      /* J = 19 */
(PID.TID 0000.0001)     2 @  1.976062798008856E+11,             /* J = 20: 21 */
(PID.TID 0000.0001)                 1.966435618690094E+11,      /* J = 22 */
(PID.TID 0000.0001)                 1.947228162702492E+11,      /* J = 23 */
(PID.TID 0000.0001)                 1.918534006840893E+11,      /* J = 24 */
(PID.TID 0000.0001)                 1.880492946148330E+11,      /* J = 25 */
(PID.TID 0000.0001)                 1.833290312848623E+11,      /* J = 26 */
(PID.TID 0000.0001)                 1.777156073426415E+11,      /* J = 27 */
(PID.TID 0000.0001)                 1.712363708253573E+11,      /* J = 28 */
(PID.TID 0000.0001)                 1.639228879220326E+11,      /* J = 29 */
(PID.TID 0000.0001)                 1.558107891862220E+11,      /* J = 30 */
(PID.TID 0000.0001)                 1.469395959475426E+11,      /* J = 31 */
(PID.TID 0000.0001)                 1.373525277677229E+11,      /* J = 32 */
(PID.TID 0000.0001)                 1.270962918792468E+11,      /* J = 33 */
(PID.TID 0000.0001)                 1.162208556324093E+11,      /* J = 34 */
(PID.TID 0000.0001)                 1.047792030594103E+11,      /* J = 35 */
(PID.TID 0000.0001)                 9.282707674147523E+10,      /* J = 36 */
(PID.TID 0000.0001)                 8.042270623659998E+10,      /* J = 37 */
(PID.TID 0000.0001)                 6.762652439100235E+10,      /* J = 38 */
(PID.TID 0000.0001)                 5.450087291636665E+10,      /* J = 39 */
(PID.TID 0000.0001)                 4.110969866729047E+10       /* J = 40 */
(PID.TID 0000.0001)     ;
(PID.TID 0000.0001) rAw =  /* rAw(:,1,:,1) ( m - cartesian, degrees - spherical ) */
(PID.TID 0000.0001)    90 @  4.110969866729047E+10              /* I =  1: 90 */
(PID.TID 0000.0001)     ;
(PID.TID 0000.0001) rAw =  /* rAw(1,:,1,:) ( m - cartesian, degrees - spherical ) */
(PID.TID 0000.0001)                 4.110969866729047E+10,      /* J =  1 */
(PID.TID 0000.0001)                 5.450087291636665E+10,      /* J =  2 */
(PID.TID 0000.0001)                 6.762652439100235E+10,      /* J =  3 */
(PID.TID 0000.0001)                 8.042270623659998E+10,      /* J =  4 */
(PID.TID 0000.0001)                 9.282707674147523E+10,      /* J =  5 */
(PID.TID 0000.0001)                 1.047792030594103E+11,      /* J =  6 */
(PID.TID 0000.0001)                 1.162208556324093E+11,      /* J =  7 */
(PID.TID 0000.0001)                 1.270962918792468E+11,      /* J =  8 */
(PID.TID 0000.0001)                 1.373525277677229E+11,      /* J =  9 */
(PID.TID 0000.0001)                 1.469395959475426E+11,      /* J = 10 */
(PID.TID 0000.0001)                 1.558107891862220E+11,      /* J = 11 */
(PID.TID 0000.0001)                 1.639228879220326E+11,      /* J = 12 */
(PID.TID 0000.0001)                 1.712363708253573E+11,      /* J = 13 */
(PID.TID 0000.0001)                 1.777156073426415E+11,      /* J = 14 */
(PID.TID 0000.0001)                 1.833290312848623E+11,      /* J = 15 */
(PID.TID 0000.0001)                 1.880492946148330E+11,      /* J = 16 */
(PID.TID 0000.0001)                 1.918534006840893E+11,      /* J = 17 */
(PID.TID 0000.0001)                 1.947228162702492E+11,      /* J = 18 */
(PID.TID 0000.0001)                 1.966435618690094E+11,      /* J = 19 */
(PID.TID 0000.0001)     2 @  1.976062798008856E+11,             /* J = 20: 21 */
(PID.TID 0000.0001)                 1.966435618690094E+11,      /* J = 22 */
(PID.TID 0000.0001)                 1.947228162702492E+11,      /* J = 23 */
(PID.TID 0000.0001)                 1.918534006840893E+11,      /* J = 24 */
(PID.TID 0000.0001)                 1.880492946148330E+11,      /* J = 25 */
(PID.TID 0000.0001)                 1.833290312848623E+11,      /* J = 26 */
(PID.TID 0000.0001)                 1.777156073426415E+11,      /* J = 27 */
(PID.TID 0000.0001)                 1.712363708253573E+11,      /* J = 28 */
(PID.TID 0000.0001)                 1.639228879220326E+11,      /* J = 29 */
(PID.TID 0000.0001)                 1.558107891862220E+11,      /* J = 30 */
(PID.TID 0000.0001)                 1.469395959475426E+11,      /* J = 31 */
(PID.TID 0000.0001)                 1.373525277677229E+11,      /* J = 32 */
(PID.TID 0000.0001)                 1.270962918792468E+11,      /* J = 33 */
(PID.TID 0000.0001)                 1.162208556324093E+11,      /* J = 34 */
(PID.TID 0000.0001)                 1.047792030594103E+11,      /* J = 35 */
(PID.TID 0000.0001)                 9.282707674147523E+10,      /* J = 36 */
(PID.TID 0000.0001)                 8.042270623659998E+10,      /* J = 37 */
(PID.TID 0000.0001)                 6.762652439100235E+10,      /* J = 38 */
(PID.TID 0000.0001)                 5.450087291636665E+10,      /* J = 39 */
(PID.TID 0000.0001)                 4.110969866729047E+10       /* J = 40 */
(PID.TID 0000.0001)     ;
(PID.TID 0000.0001) rAs =  /* rAs(:,1,:,1) ( m - cartesian, degrees - spherical ) */
(PID.TID 0000.0001)    90 @  3.433488626798250E+10              /* I =  1: 90 */
(PID.TID 0000.0001)     ;
(PID.TID 0000.0001) rAs =  /* rAs(1,:,1,:) ( m - cartesian, degrees - spherical ) */
(PID.TID 0000.0001)                 3.433488626798250E+10,      /* J =  1 */
(PID.TID 0000.0001)                 4.783442523123625E+10,      /* J =  2 */
(PID.TID 0000.0001)                 6.110091968306414E+10,      /* J =  3 */
(PID.TID 0000.0001)                 7.406973659603818E+10,      /* J =  4 */
(PID.TID 0000.0001)                 8.667769319778079E+10,      /* J =  5 */
(PID.TID 0000.0001)                 9.886336479107463E+10,      /* J =  6 */
(PID.TID 0000.0001)                 1.105673840088173E+11,      /* J =  7 */
(PID.TID 0000.0001)                 1.217327300458638E+11,      /* J =  8 */
(PID.TID 0000.0001)                 1.323050064586578E+11,      /* J =  9 */
(PID.TID 0000.0001)                 1.422327061792377E+11,      /* J = 10 */
(PID.TID 0000.0001)                 1.514674624524945E+11,      /* J = 11 */
(PID.TID 0000.0001)                 1.599642844741385E+11,      /* J = 12 */
(PID.TID 0000.0001)                 1.676817765813788E+11,      /* J = 13 */
(PID.TID 0000.0001)                 1.745823399284268E+11,      /* J = 14 */
(PID.TID 0000.0001)                 1.806323556642996E+11,      /* J = 15 */
(PID.TID 0000.0001)                 1.858023487204767E+11,      /* J = 16 */
(PID.TID 0000.0001)                 1.900671314104743E+11,      /* J = 17 */
(PID.TID 0000.0001)                 1.934059261417216E+11,      /* J = 18 */
(PID.TID 0000.0001)                 1.958024666419019E+11,      /* J = 19 */
(PID.TID 0000.0001)                 1.972450772065981E+11,      /* J = 20 */
(PID.TID 0000.0001)                 1.977267295821495E+11,      /* J = 21 */
(PID.TID 0000.0001)                 1.972450772065981E+11,      /* J = 22 */
(PID.TID 0000.0001)                 1.958024666419019E+11,      /* J = 23 */
(PID.TID 0000.0001)                 1.934059261417216E+11,      /* J = 24 */
(PID.TID 0000.0001)                 1.900671314104743E+11,      /* J = 25 */
(PID.TID 0000.0001)                 1.858023487204767E+11,      /* J = 26 */
(PID.TID 0000.0001)                 1.806323556642996E+11,      /* J = 27 */
(PID.TID 0000.0001)                 1.745823399284268E+11,      /* J = 28 */
(PID.TID 0000.0001)                 1.676817765813788E+11,      /* J = 29 */
(PID.TID 0000.0001)                 1.599642844741385E+11,      /* J = 30 */
(PID.TID 0000.0001)                 1.514674624524945E+11,      /* J = 31 */
(PID.TID 0000.0001)                 1.422327061792377E+11,      /* J = 32 */
(PID.TID 0000.0001)                 1.323050064586578E+11,      /* J = 33 */
(PID.TID 0000.0001)                 1.217327300458638E+11,      /* J = 34 */
(PID.TID 0000.0001)                 1.105673840088173E+11,      /* J = 35 */
(PID.TID 0000.0001)                 9.886336479107463E+10,      /* J = 36 */
(PID.TID 0000.0001)                 8.667769319778079E+10,      /* J = 37 */
(PID.TID 0000.0001)                 7.406973659603818E+10,      /* J = 38 */
(PID.TID 0000.0001)                 6.110091968306414E+10,      /* J = 39 */
(PID.TID 0000.0001)                 4.783442523123625E+10       /* J = 40 */
(PID.TID 0000.0001)     ;
(PID.TID 0000.0001) 
(PID.TID 0000.0001)  MDSREADFIELD: opening global file: theta.bin
(PID.TID 0000.0001) // =======================================================
(PID.TID 0000.0001) // Field Initial Temperature at iteration          1
(PID.TID 0000.0001) // CMIN =         -1.668560028076172E+00
(PID.TID 0000.0001) // CMAX =          2.932958030700684E+01
(PID.TID 0000.0001) // CINT =          1.148079271669741E+00
(PID.TID 0000.0001) // SYMBOLS (CMIN->CMAX): -abcdefghijklmnopqrstuvwxyz+
(PID.TID 0000.0001) //                  0.0: .
(PID.TID 0000.0001) // RANGE I (Lo:Hi:Step):(   1:  90:   1)
(PID.TID 0000.0001) // RANGE J (Lo:Hi:Step):(  40:   1:  -1)
(PID.TID 0000.0001) // RANGE K (Lo:Hi:Step):(   1:   1:   1)
(PID.TID 0000.0001) // =======================================================
(PID.TID 0000.0001) K =   1
(PID.TID 0000.0001)                I=10      I=20      I=30      I=40      I=50      I=60      I=70      I=80      I=90
(PID.TID 0000.0001) |--J--|123456789|123456789|123456789|123456789|123456789|123456789|123456789|123456789|123456789|
(PID.TID 0000.0001)     40 ..........................................................................................
(PID.TID 0000.0001)     39 efffgf...................................................................bbb.........bbccd
(PID.TID 0000.0001)     38 hhhh......................................................................bc........dddefg
(PID.TID 0000.0001)     37 ij........................................................................ccc...ffgg..hhii
(PID.TID 0000.0001)     36 i..........................................efeed..........................deee.fhhijjkkjji
(PID.TID 0000.0001)     35 jj.................................dddd.ffffffffff.ghhiii..................defgghijkllll..
(PID.TID 0000.0001)     34 ....................................deeefffgggggghhhhiijjj..................dfhijklmmmml..
(PID.TID 0000.0001)     33 ....................................eeeffgggghhhhiiiiijjkkk...............ee.egkmmnnnnnmm.
(PID.TID 0000.0001)     32 ....................................hhhiiiijjjjjkkkkklllmml...............iiihkopppoooon..
(PID.TID 0000.0001)     31 ....................................mnnnnnnnnnnnnnnnnnooonm.............oprrrqrsrrrqqqp...
(PID.TID 0000.0001)     30 ...................................rrrrrqqqqqqqpppppqqqqpon............suuuuutttsssrrrrq..
(PID.TID 0000.0001)     29 ...............................ruuuuttttttttsssssssssssrrqpoo.........vvuuuuuutttttsssrr..
(PID.TID 0000.0001)     28 ..............................uvvvvvvvvvvvvvvvvuuuuuuutssrrqq......wv.wwvvvvvvvuuutttss...
(PID.TID 0000.0001)     27 ...............................xxxxwxxxxwxwwwwwwwwwvvuutttsssst...wxxxxxxxxxxwwwvvvuus....
(PID.TID 0000.0001)     26 ...............xyy....y.....xxyyyyyyyyyyyyyxxxxxxxxwwvvvvuuuuvvw..w.yyyyyyyxxxxwwvvuts....
(PID.TID 0000.0001)     25 .............xxyyz..yzzy...xyy.zzzzzzzzzzyyyyyyyxxxxwwwwwwwwxxxyy....zzyyyyyyxxxwwwvut....
(PID.TID 0000.0001)     24 ............xxyzzzz.zzzz...yyz.zzzzzzzzzzzzyyyyyyyxxxxxxxxxxxyyyyxww.yyy.yyyyyxxxwwwvu....
(PID.TID 0000.0001)     23 .............xyzzzzzzzzz.zyyzzzzzz++++zzzzzzzzzzzyyyyyyyyyyyyyyyxxwvw......yyyyyyxxxxww...
(PID.TID 0000.0001)     22 xx..........yyzz+zzzzzzz..zz..zzz++++++++++zzzzzzzzzzyyyyyxxxxxxxxxwww.......yyyyyyyyyyxww
(PID.TID 0000.0001)     21 ww.........yyyzzzzzzzz+++.....zzzz++++++++zzzzzzyyyyyyxxxwwwvvvvuuutut........yyyyyxxxxwww
(PID.TID 0000.0001)     20 vvu.......yyyyyyzzzzzzzzz.......y...++++++++++zzzzzzzyyyyxxxwwwvvuuut............yyyxxxwvv
(PID.TID 0000.0001)     19 vut.......yxyxxyyyyyyyzzzzz.zzzzzy...zz++++++++++++zzzzyyyyyxxxwwvvvus...........yyyxxxwww
(PID.TID 0000.0001)     18 uut.......yyyyxyyyyyyyyyyyyyzzzz....yyyzzzzzz++z++zzzzzzyyyxxxwwvvuutsr..........yyxxxwvvv
(PID.TID 0000.0001)     17 tts.......y..xxxxxxxxxxxxxxxyyy......xyyyyyyyyzzzzzzzzyyyyxxxwwvvuuutsr..........xxxwwvuut
(PID.TID 0000.0001)     16 tsq......xx.xxwwwwwwwvvvvwwww........wwwxxxxxxxxxxxxxxxxxxxxxwvvvuuttssr........xxxxwvvuut
(PID.TID 0000.0001)     15 srq......ww.wwwvvvvvuuuuuuuv..........vvvvvvvvvvvvvvvvvwwwwwwvvvuuttsrrq.......vwwwwvvuutt
(PID.TID 0000.0001)     14 ssrp....vvvvvvuuuuuttstttstt...........uuuttutttttttuuuuuuuuuvuuuttssrqp......uvvvuuuuuuts
(PID.TID 0000.0001)     13 rrrq...ttsssssrrrrrrqrqqqqqr..........uttsssssrrrrsrrsssssssssrrrrrrrqpo.....tttttsttttssr
(PID.TID 0000.0001)     12 ppqqrssssrrqqqqpppooooooopppq.qppp....ssrqqqqqpppppppppppppoooopooppppon....orrrrrqqqqqqqp
(PID.TID 0000.0001)     11 mlmopqpppppoooononnmmmlmmmmmnnnnnnnoopppppp.pooonnnnnnnnnmmmmmmmmmmnnnn....lmpoooooonnnnmm
(PID.TID 0000.0001)     10 iiijkkkkkjjiijkkkkkkkkjjjjjjkkkkllllmnnnnn.lmmmnmmlllllmllllllkkkjkllll...kjlmlkkkkkjjjjii
(PID.TID 0000.0001)      9 ffffffffffffefffeefgggggfggghhiiiiijjkllllkkkkkkkkkkkkjjjjjjiiiiiiijjjk...ihiiihggggfffeee
(PID.TID 0000.0001)      8 ccccccddddddddeedddddddedeeeefffgfggghhhiiiiiiiihhhhhhhhhgggggghggggghi..hhhgffedddddddccc
(PID.TID 0000.0001)      7 aaabbbccccccccccccccbccccccccddddddddeeffghhgggggfeedddeeffffffffggfggggggffeddccbbbbbbbbb
(PID.TID 0000.0001)      6 aaaabbbbbbbbbbbbbbbbbbbbbbbbbcccccccccccdeeeeeeedcbbbbbccccdddddeeeeeeeeddcccbbbaaaaaaaaaa
(PID.TID 0000.0001)      5 aaabbbbbbbbaaaaabbbaaaaaa.aaabbbbbbbbbbbbbbbbbbbbbaaaaaaaabbbbcccccccbbbbb.aaaaaaaaaaaaaaa
(PID.TID 0000.0001)      4 aaaaaaaa.a..............................aaaaaaaaaaaaaaaaaaaaaaaaaaaaaaaa...aa--aaaaaaaaaaa
(PID.TID 0000.0001)      3 ...........................................aaaaaa------------aaaa..........------aaaaa....
(PID.TID 0000.0001)      2 ...........................................aaaaaa--...........................----........
(PID.TID 0000.0001)      1 ..........................................................................................
(PID.TID 0000.0001) // =======================================================
(PID.TID 0000.0001) // END OF FIELD                                          =
(PID.TID 0000.0001) // =======================================================
(PID.TID 0000.0001) 
(PID.TID 0000.0001)  MDSREADFIELD: opening global file: salt.bin
(PID.TID 0000.0001) // =======================================================
(PID.TID 0000.0001) // Field Initial Salinity at iteration          1
(PID.TID 0000.0001) // CMIN =          3.102835273742676E+01
(PID.TID 0000.0001) // CMAX =          3.743946075439453E+01
(PID.TID 0000.0001) // CINT =          2.374484450728805E-01
(PID.TID 0000.0001) // SYMBOLS (CMIN->CMAX): -abcdefghijklmnopqrstuvwxyz+
(PID.TID 0000.0001) //                  0.0: .
(PID.TID 0000.0001) // RANGE I (Lo:Hi:Step):(   1:  90:   1)
(PID.TID 0000.0001) // RANGE J (Lo:Hi:Step):(  40:   1:  -1)
(PID.TID 0000.0001) // RANGE K (Lo:Hi:Step):(   1:   1:   1)
(PID.TID 0000.0001) // =======================================================
(PID.TID 0000.0001) K =   1
(PID.TID 0000.0001)                I=10      I=20      I=30      I=40      I=50      I=60      I=70      I=80      I=90
(PID.TID 0000.0001) |--J--|123456789|123456789|123456789|123456789|123456789|123456789|123456789|123456789|123456789|
(PID.TID 0000.0001)     40 ..........................................................................................
(PID.TID 0000.0001)     39 qqqqpp...................................................................ghi.........kmnpp
(PID.TID 0000.0001)     38 rqpn......................................................................gh........mnoppq
(PID.TID 0000.0001)     37 qo........................................................................hjj...noqq..pqqq
(PID.TID 0000.0001)     36 p..........................................hhgeb..........................jmom.npqqrrrrrrq
(PID.TID 0000.0001)     35 po.................................gghh.ghiiiihfdb.egggec..................gloppppqqrrrr..
(PID.TID 0000.0001)     34 ....................................fghghhhhhhhhgfgggggfed..................flopppqrrsrr..
(PID.TID 0000.0001)     33 ....................................gghhhhhhhhgghhgggggggfe...............-b.glprsrrssssr.
(PID.TID 0000.0001)     32 ....................................hhijjjjjkjjjjiihhhhhggf...............cghiosttttssts..
(PID.TID 0000.0001)     31 ....................................llmmmmmmmmmmmllkjkjihgh.............mpsttsuvuuuuuut...
(PID.TID 0000.0001)     30 ...................................nooooooooonnnnnmmmmlkjih............qvwwwwwvvvvvvvvvv..
(PID.TID 0000.0001)     29 ...............................knooooooopppppppppppppppomkjjj.........vwwwwwwwwxxxxxxwww..
(PID.TID 0000.0001)     28 ..............................lnopoppppqqqqqqrrrrrrrrrrqpnlkk......tu.vwwxxxyyyzzzzyyxw...
(PID.TID 0000.0001)     27 ...............................pppppqqqqqrrrrrrrrrqqqqqqponmmmp...wwvuwwwwxxyz++++zzyx....
(PID.TID 0000.0001)     26 ...............vwu....h.....mmnooppppqqqqqrqqqqqqpppoppoooonnnoo..v.uuvvvuuuwyzzyyyxwu....
(PID.TID 0000.0001)     25 .............uuvwv..gihf...llk.nnooopppppppppppoooonnoonnnnnmmmmm....uttsssstwwwwwwvut....
(PID.TID 0000.0001)     24 ............utuvvuq.kkig...kjk.nnnnnoooooooooooonnnnnnnmmmmmlllllmmm.vuu.vsrrtuvuuuuts....
(PID.TID 0000.0001)     23 .............stttspommki.eijjkmnmmmnnnnnnnnnnnnoonnnnnnnnmmmmmllklmml......srstttuttssp...
(PID.TID 0000.0001)     22 qm..........ssrrrrqponml..jj..mnnnnoonnonopopppqqppppppppooonnnmlllkjj.......outtttssrrqrr
(PID.TID 0000.0001)     21 qp.........rrrrrqqqpppnml.....mmnoooooppppqqrrrrrrrqqqqqqppppppppooonm........tuuuuutttsrr
(PID.TID 0000.0001)     20 ssq.......rrrrqqqqppponmm.......n...noppppqqrssssssrssrrrrqqqqqqppppp............uuuutttts
(PID.TID 0000.0001)     19 usr.......qqrqppppooonnmmml.kklmmm...nppoppppqrrssssssssssrrrrrrqqrqqq...........wvvuuuuuu
(PID.TID 0000.0001)     18 vut.......qqqppoooonnnnnnnnnnnno....qqpppppppqrrsttttttuutttttttssssrrq..........xxxxxwwww
(PID.TID 0000.0001)     17 uut.......q..qpppoooooooooooooo......rqqpqqqqrsrsttuuuvvvvvvvvvuuttssrq..........yzzyyxwwv
(PID.TID 0000.0001)     16 tts......qq.qqqppqpqpppqqqqqq........rrrrrrrqrsssstttuuvvvwwwwvvvutsrrqq........yyzzyxxwvu
(PID.TID 0000.0001)     15 tsr......rr.qqrrrrssrssssssr..........sssssssssssssssssstuvwvvuuvtsrqppp.......wxxxxxxwwvu
(PID.TID 0000.0001)     14 ttsr....rrrrrrssstttttttttts...........sttttsssssssssrrrssttttttssrqpoon......vwwuuvvvvuuu
(PID.TID 0000.0001)     13 tsss...rssssssssstttsttttttt..........sssssttssssrrssrrqqqqrrqqppppooonm.....svuuttttstttt
(PID.TID 0000.0001)     12 rrrsrrrssssssrrssrrrrrrqrssss.srrs....ssssssssrrqqqqqqpqpoooonnnnnnnnmml....ksutsssrrrrrqr
(PID.TID 0000.0001)     11 oooqrrrrrqqqppprrrqqpppppqqqqqpppqqrrsrrrrr.rrrqppponnnnnmmmmmmmllmmlml....korqppqrqqpppoo
(PID.TID 0000.0001)     10 mmmnnooonmllkklnnnoonnonooooooopooppqqqppp.ooppppoonnnnnnmmmmmmmllmlllk...kmoponoonnnnnnnn
(PID.TID 0000.0001)      9 lllllllllllkkklkkklllmmmmmmmnnnnnnnooooooonnnnoooooooonnnnnnnnmmmmmmmmk...kmnnnnmmmlllllll
(PID.TID 0000.0001)      8 lllmmmmlllllllllllllllllllllllllllmmmmmmnnnnnnnnnnnnnnnnnnnnnnmnnmmmmml..ikmmmllllllllllll
(PID.TID 0000.0001)      7 mmmmmmmllllllllllllllllllllllllllllllllllmmmmmmmmlllmmmmmmmmmmmmmmmmmmmlkllmmlllllllllllll
(PID.TID 0000.0001)      6 mmmlllllllllllllllllllllllllllllllllllllllllllllllmmmmmmmmmmmmmmmmmmmmmmmlllmmmmmllllllmmm
(PID.TID 0000.0001)      5 nnmmmllllllllllllllllllll.lllmmllllllllmmmmmmmmmmmmmmlllllllllllllllllllll.mmmmmmmmmmmmmmn
(PID.TID 0000.0001)      4 nmmmllll.l..............................mmmmmmlmmmllkkkkkkkkkkkkkkkkkkkk...mnnnnnnnnnnmmnn
(PID.TID 0000.0001)      3 ...........................................nmmmlllllkkkkklmmmmllk..........nnnnnmmmmmm....
(PID.TID 0000.0001)      2 ...........................................nnnmmmmm...........................nnnm........
(PID.TID 0000.0001)      1 ..........................................................................................
(PID.TID 0000.0001) // =======================================================
(PID.TID 0000.0001) // END OF FIELD                                          =
(PID.TID 0000.0001) // =======================================================
(PID.TID 0000.0001) 
(PID.TID 0000.0001) Start initial hydrostatic pressure computation
(PID.TID 0000.0001) Pressure is predetermined for buoyancyRelation OCEANIC
(PID.TID 0000.0001) 
(PID.TID 0000.0001)  MDSREADFIELD: opening global file: windx.bin
(PID.TID 0000.0001)  MDSREADFIELD: opening global file: windy.bin
(PID.TID 0000.0001)  MDSREADFIELD: opening global file: SST.bin
(PID.TID 0000.0001)  MDSREADFIELD: opening global file: SSS.bin
(PID.TID 0000.0001) // =======================================================
(PID.TID 0000.0001) // Model current state
(PID.TID 0000.0001) // =======================================================
(PID.TID 0000.0001) 
(PID.TID 0000.0001) // =======================================================
(PID.TID 0000.0001) // Begin MONITOR dynamic field statistics
(PID.TID 0000.0001) // =======================================================
(PID.TID 0000.0001) %MON time_tsnumber                =                     0
(PID.TID 0000.0001) %MON time_secondsf                =   0.0000000000000E+00
(PID.TID 0000.0001) %MON dynstat_eta_max              =   0.0000000000000E+00
(PID.TID 0000.0001) %MON dynstat_eta_min              =   0.0000000000000E+00
(PID.TID 0000.0001) %MON dynstat_eta_mean             =   0.0000000000000E+00
(PID.TID 0000.0001) %MON dynstat_eta_sd               =   0.0000000000000E+00
(PID.TID 0000.0001) %MON dynstat_eta_del2             =   0.0000000000000E+00
(PID.TID 0000.0001) %MON dynstat_uvel_max             =   0.0000000000000E+00
(PID.TID 0000.0001) %MON dynstat_uvel_min             =   0.0000000000000E+00
(PID.TID 0000.0001) %MON dynstat_uvel_mean            =   0.0000000000000E+00
(PID.TID 0000.0001) %MON dynstat_uvel_sd              =   0.0000000000000E+00
(PID.TID 0000.0001) %MON dynstat_uvel_del2            =   0.0000000000000E+00
(PID.TID 0000.0001) %MON dynstat_vvel_max             =   0.0000000000000E+00
(PID.TID 0000.0001) %MON dynstat_vvel_min             =   0.0000000000000E+00
(PID.TID 0000.0001) %MON dynstat_vvel_mean            =   0.0000000000000E+00
(PID.TID 0000.0001) %MON dynstat_vvel_sd              =   0.0000000000000E+00
(PID.TID 0000.0001) %MON dynstat_vvel_del2            =   0.0000000000000E+00
(PID.TID 0000.0001) %MON dynstat_wvel_max             =   0.0000000000000E+00
(PID.TID 0000.0001) %MON dynstat_wvel_min             =   0.0000000000000E+00
(PID.TID 0000.0001) %MON dynstat_wvel_mean            =   0.0000000000000E+00
(PID.TID 0000.0001) %MON dynstat_wvel_sd              =   0.0000000000000E+00
(PID.TID 0000.0001) %MON dynstat_wvel_del2            =   0.0000000000000E+00
(PID.TID 0000.0001) %MON dynstat_theta_max            =   2.9329580307007E+01
(PID.TID 0000.0001) %MON dynstat_theta_min            =  -1.8496928215027E+00
(PID.TID 0000.0001) %MON dynstat_theta_mean           =   3.4434668483202E+00
(PID.TID 0000.0001) %MON dynstat_theta_sd             =   4.2513626348502E+00
(PID.TID 0000.0001) %MON dynstat_theta_del2           =   1.6419115588189E-01
(PID.TID 0000.0001) %MON dynstat_salt_max             =   3.7439460754395E+01
(PID.TID 0000.0001) %MON dynstat_salt_min             =   3.1028352737427E+01
(PID.TID 0000.0001) %MON dynstat_salt_mean            =   3.4718545511620E+01
(PID.TID 0000.0001) %MON dynstat_salt_sd              =   2.8229416934120E-01
(PID.TID 0000.0001) %MON dynstat_salt_del2            =   2.6263216318373E-02
(PID.TID 0000.0001) %MON advcfl_uvel_max              =   0.0000000000000E+00
(PID.TID 0000.0001) %MON advcfl_vvel_max              =   0.0000000000000E+00
(PID.TID 0000.0001) %MON advcfl_wvel_max              =   0.0000000000000E+00
(PID.TID 0000.0001) %MON advcfl_W_hf_max              =   0.0000000000000E+00
(PID.TID 0000.0001) %MON pe_b_mean                    =   0.0000000000000E+00
(PID.TID 0000.0001) %MON ke_max                       =   0.0000000000000E+00
(PID.TID 0000.0001) %MON ke_mean                      =   0.0000000000000E+00
(PID.TID 0000.0001) %MON ke_vol                       =   1.4474490094807E+18
(PID.TID 0000.0001) %MON vort_r_min                   =   0.0000000000000E+00
(PID.TID 0000.0001) %MON vort_r_max                   =   0.0000000000000E+00
(PID.TID 0000.0001) %MON vort_a_mean                  =  -1.8569334076123E-05
(PID.TID 0000.0001) %MON vort_a_sd                    =   7.3617712056034E-05
(PID.TID 0000.0001) %MON vort_p_mean                  =  -2.1757776080171E-05
(PID.TID 0000.0001) %MON vort_p_sd                    =   9.9829079474587E-05
(PID.TID 0000.0001) %MON surfExpan_theta_mean         =   0.0000000000000E+00
(PID.TID 0000.0001) %MON surfExpan_salt_mean          =   0.0000000000000E+00
(PID.TID 0000.0001) // =======================================================
(PID.TID 0000.0001) // End MONITOR dynamic field statistics
(PID.TID 0000.0001) // =======================================================
 cg2d: Sum(rhs),rhsMax =   4.69069227904129E-15  8.55254915209884E+00
(PID.TID 0000.0001)                    cg2d_init_res =    3.25964330325846E+00
(PID.TID 0000.0001)                       cg2d_iters =    41
(PID.TID 0000.0001)                         cg2d_res =    6.20895253930014E-14
(PID.TID 0000.0001) // =======================================================
(PID.TID 0000.0001) // Begin MONITOR dynamic field statistics
(PID.TID 0000.0001) // =======================================================
(PID.TID 0000.0001) %MON time_tsnumber                =                     1
(PID.TID 0000.0001) %MON time_secondsf                =   1.0800000000000E+05
(PID.TID 0000.0001) %MON dynstat_eta_max              =   8.7083955129949E-01
(PID.TID 0000.0001) %MON dynstat_eta_min              =  -3.5440825352850E-01
(PID.TID 0000.0001) %MON dynstat_eta_mean             =   4.6317676820451E-17
(PID.TID 0000.0001) %MON dynstat_eta_sd               =   8.6484951585563E-02
(PID.TID 0000.0001) %MON dynstat_eta_del2             =   2.0558343262121E-02
(PID.TID 0000.0001) %MON dynstat_uvel_max             =   5.8154043988326E-02
(PID.TID 0000.0001) %MON dynstat_uvel_min             =  -1.2347638632761E-01
(PID.TID 0000.0001) %MON dynstat_uvel_mean            =  -1.3225551674631E-03
(PID.TID 0000.0001) %MON dynstat_uvel_sd              =   3.4087712578893E-03
(PID.TID 0000.0001) %MON dynstat_uvel_del2            =   8.2053769806357E-04
(PID.TID 0000.0001) %MON dynstat_vvel_max             =   1.0896886551677E-01
(PID.TID 0000.0001) %MON dynstat_vvel_min             =  -1.5259193897367E-01
(PID.TID 0000.0001) %MON dynstat_vvel_mean            =   2.8407768050158E-03
(PID.TID 0000.0001) %MON dynstat_vvel_sd              =   8.8491808719141E-03
(PID.TID 0000.0001) %MON dynstat_vvel_del2            =   1.1326870302058E-03
(PID.TID 0000.0001) %MON dynstat_wvel_max             =   6.2344383699975E-04
(PID.TID 0000.0001) %MON dynstat_wvel_min             =  -3.5235485113750E-04
(PID.TID 0000.0001) %MON dynstat_wvel_mean            =   7.5633854975175E-22
(PID.TID 0000.0001) %MON dynstat_wvel_sd              =   3.5353471781544E-05
(PID.TID 0000.0001) %MON dynstat_wvel_del2            =   1.1474299592675E-05
(PID.TID 0000.0001) %MON dynstat_theta_max            =   2.9327944623998E+01
(PID.TID 0000.0001) %MON dynstat_theta_min            =  -1.8486819133684E+00
(PID.TID 0000.0001) %MON dynstat_theta_mean           =   3.4434668483202E+00
(PID.TID 0000.0001) %MON dynstat_theta_sd             =   4.2510689869085E+00
(PID.TID 0000.0001) %MON dynstat_theta_del2           =   1.6417898562235E-01
(PID.TID 0000.0001) %MON dynstat_salt_max             =   3.7438877520977E+01
(PID.TID 0000.0001) %MON dynstat_salt_min             =   3.1030845979640E+01
(PID.TID 0000.0001) %MON dynstat_salt_mean            =   3.4718545511620E+01
(PID.TID 0000.0001) %MON dynstat_salt_sd              =   2.8221263008079E-01
(PID.TID 0000.0001) %MON dynstat_salt_del2            =   2.6398953087188E-02
(PID.TID 0000.0001) %MON advcfl_uvel_max              =   4.7678539165638E-02
(PID.TID 0000.0001) %MON advcfl_vvel_max              =   3.7057708077636E-02
(PID.TID 0000.0001) %MON advcfl_wvel_max              =   1.5675111923391E+00
(PID.TID 0000.0001) %MON advcfl_W_hf_max              =   1.6237236211037E+00
(PID.TID 0000.0001) %MON pe_b_mean                    =   8.4542791959270E-06
(PID.TID 0000.0001) %MON ke_max                       =   7.3538831536440E-03
(PID.TID 0000.0001) %MON ke_mean                      =   4.5101845615489E-05
(PID.TID 0000.0001) %MON ke_vol                       =   1.4474490094807E+18
(PID.TID 0000.0001) %MON vort_r_min                   =  -3.6111908324818E-07
(PID.TID 0000.0001) %MON vort_r_max                   =   3.6028004333527E-07
(PID.TID 0000.0001) %MON vort_a_mean                  =  -1.8569334076122E-05
(PID.TID 0000.0001) %MON vort_a_sd                    =   7.3617441775445E-05
(PID.TID 0000.0001) %MON vort_p_mean                  =  -2.1757776080170E-05
(PID.TID 0000.0001) %MON vort_p_sd                    =   9.9828547564071E-05
(PID.TID 0000.0001) %MON surfExpan_theta_mean         =   1.1943001355698E-04
(PID.TID 0000.0001) %MON surfExpan_salt_mean          =   1.0447378176801E-05
(PID.TID 0000.0001) // =======================================================
(PID.TID 0000.0001) // End MONITOR dynamic field statistics
(PID.TID 0000.0001) // =======================================================
 cg2d: Sum(rhs),rhsMax =  -2.67563748934663E-14  1.40324358577480E+01
(PID.TID 0000.0001)                    cg2d_init_res =    1.26358070636351E+00
(PID.TID 0000.0001)                       cg2d_iters =    40
(PID.TID 0000.0001)                         cg2d_res =    7.64641358412871E-14
(PID.TID 0000.0001) // =======================================================
(PID.TID 0000.0001) // Begin MONITOR dynamic field statistics
(PID.TID 0000.0001) // =======================================================
(PID.TID 0000.0001) %MON time_tsnumber                =                     2
(PID.TID 0000.0001) %MON time_secondsf                =   2.1600000000000E+05
(PID.TID 0000.0001) %MON dynstat_eta_max              =   1.5145960735900E+00
(PID.TID 0000.0001) %MON dynstat_eta_min              =  -7.1467786680678E-01
(PID.TID 0000.0001) %MON dynstat_eta_mean             =  -9.6617151395378E-17
(PID.TID 0000.0001) %MON dynstat_eta_sd               =   1.8742169637650E-01
(PID.TID 0000.0001) %MON dynstat_eta_del2             =   3.0421197038906E-02
(PID.TID 0000.0001) %MON dynstat_uvel_max             =   1.3130065745613E-01
(PID.TID 0000.0001) %MON dynstat_uvel_min             =  -2.1320345131110E-01
(PID.TID 0000.0001) %MON dynstat_uvel_mean            =  -3.4705265403171E-03
(PID.TID 0000.0001) %MON dynstat_uvel_sd              =   7.1339567639778E-03
(PID.TID 0000.0001) %MON dynstat_uvel_del2            =   1.6654176633104E-03
(PID.TID 0000.0001) %MON dynstat_vvel_max             =   1.9260510941939E-01
(PID.TID 0000.0001) %MON dynstat_vvel_min             =  -2.6801987718031E-01
(PID.TID 0000.0001) %MON dynstat_vvel_mean            =   5.1288231745534E-03
(PID.TID 0000.0001) %MON dynstat_vvel_sd              =   1.5372534195820E-02
(PID.TID 0000.0001) %MON dynstat_vvel_del2            =   2.3132063081308E-03
(PID.TID 0000.0001) %MON dynstat_wvel_max             =   1.0222931967696E-03
(PID.TID 0000.0001) %MON dynstat_wvel_min             =  -5.9493001468520E-04
(PID.TID 0000.0001) %MON dynstat_wvel_mean            =   8.7093529971413E-22
(PID.TID 0000.0001) %MON dynstat_wvel_sd              =   5.1691287700572E-05
(PID.TID 0000.0001) %MON dynstat_wvel_del2            =   1.2615205724279E-05
(PID.TID 0000.0001) %MON dynstat_theta_max            =   2.9321594799546E+01
(PID.TID 0000.0001) %MON dynstat_theta_min            =  -1.8475996845170E+00
(PID.TID 0000.0001) %MON dynstat_theta_mean           =   3.4387131219970E+00
(PID.TID 0000.0001) %MON dynstat_theta_sd             =   4.2431620132568E+00
(PID.TID 0000.0001) %MON dynstat_theta_del2           =   1.5851369852335E-01
(PID.TID 0000.0001) %MON dynstat_salt_max             =   3.7437937031270E+01
(PID.TID 0000.0001) %MON dynstat_salt_min             =   3.1023358035893E+01
(PID.TID 0000.0001) %MON dynstat_salt_mean            =   3.4718129374741E+01
(PID.TID 0000.0001) %MON dynstat_salt_sd              =   2.8245136608871E-01
(PID.TID 0000.0001) %MON dynstat_salt_del2            =   2.6234026468068E-02
(PID.TID 0000.0001) %MON advcfl_uvel_max              =   8.1453358066288E-02
(PID.TID 0000.0001) %MON advcfl_vvel_max              =   6.5089954517622E-02
(PID.TID 0000.0001) %MON advcfl_wvel_max              =   1.1587617401229E+00
(PID.TID 0000.0001) %MON advcfl_W_hf_max              =   1.3025482907521E+00
(PID.TID 0000.0001) %MON pe_b_mean                    =   3.9704087704103E-05
(PID.TID 0000.0001) %MON ke_max                       =   2.2632567327693E-02
(PID.TID 0000.0001) %MON ke_mean                      =   1.4734312941364E-04
(PID.TID 0000.0001) %MON ke_vol                       =   1.4474490094807E+18
(PID.TID 0000.0001) %MON vort_r_min                   =  -6.2819368199996E-07
(PID.TID 0000.0001) %MON vort_r_max                   =   6.3440268032946E-07
(PID.TID 0000.0001) %MON vort_a_mean                  =  -1.8569334076122E-05
(PID.TID 0000.0001) %MON vort_a_sd                    =   7.3617031955603E-05
(PID.TID 0000.0001) %MON vort_p_mean                  =  -2.1757776080170E-05
(PID.TID 0000.0001) %MON vort_p_sd                    =   9.9827709721231E-05
(PID.TID 0000.0001) %MON surfExpan_theta_mean         =   1.9631746088868E-04
(PID.TID 0000.0001) %MON surfExpan_salt_mean          =   1.7403603565474E-05
(PID.TID 0000.0001) // =======================================================
(PID.TID 0000.0001) // End MONITOR dynamic field statistics
(PID.TID 0000.0001) // =======================================================
 cg2d: Sum(rhs),rhsMax =   1.86517468137026E-14  1.18718018220213E+01
(PID.TID 0000.0001)                    cg2d_init_res =    1.44537622065911E+00
(PID.TID 0000.0001)                       cg2d_iters =    40
(PID.TID 0000.0001)                         cg2d_res =    8.44479135508548E-14
(PID.TID 0000.0001) // =======================================================
(PID.TID 0000.0001) // Begin MONITOR dynamic field statistics
(PID.TID 0000.0001) // =======================================================
(PID.TID 0000.0001) %MON time_tsnumber                =                     3
(PID.TID 0000.0001) %MON time_secondsf                =   3.2400000000000E+05
(PID.TID 0000.0001) %MON dynstat_eta_max              =   1.4351452700309E+00
(PID.TID 0000.0001) %MON dynstat_eta_min              =  -9.9663759383308E-01
(PID.TID 0000.0001) %MON dynstat_eta_mean             =  -3.3587635175993E-16
(PID.TID 0000.0001) %MON dynstat_eta_sd               =   2.8033596090622E-01
(PID.TID 0000.0001) %MON dynstat_eta_del2             =   2.7789438532925E-02
(PID.TID 0000.0001) %MON dynstat_uvel_max             =   2.0443475172593E-01
(PID.TID 0000.0001) %MON dynstat_uvel_min             =  -2.7984170177566E-01
(PID.TID 0000.0001) %MON dynstat_uvel_mean            =  -6.0199460058577E-03
(PID.TID 0000.0001) %MON dynstat_uvel_sd              =   1.1221290231683E-02
(PID.TID 0000.0001) %MON dynstat_uvel_del2            =   2.2877453802528E-03
(PID.TID 0000.0001) %MON dynstat_vvel_max             =   2.6080652425892E-01
(PID.TID 0000.0001) %MON dynstat_vvel_min             =  -3.6271304644085E-01
(PID.TID 0000.0001) %MON dynstat_vvel_mean            =   6.6680925518724E-03
(PID.TID 0000.0001) %MON dynstat_vvel_sd              =   1.9617812107821E-02
(PID.TID 0000.0001) %MON dynstat_vvel_del2            =   3.2115231134669E-03
(PID.TID 0000.0001) %MON dynstat_wvel_max             =   1.3085547816447E-03
(PID.TID 0000.0001) %MON dynstat_wvel_min             =  -8.0010797345012E-04
(PID.TID 0000.0001) %MON dynstat_wvel_mean            =   9.1677399969909E-22
(PID.TID 0000.0001) %MON dynstat_wvel_sd              =   5.9668983771923E-05
(PID.TID 0000.0001) %MON dynstat_wvel_del2            =   1.2305024437015E-05
(PID.TID 0000.0001) %MON dynstat_theta_max            =   2.9320762184712E+01
(PID.TID 0000.0001) %MON dynstat_theta_min            =  -1.8482361913416E+00
(PID.TID 0000.0001) %MON dynstat_theta_mean           =   3.4326821940771E+00
(PID.TID 0000.0001) %MON dynstat_theta_sd             =   4.2323151801876E+00
(PID.TID 0000.0001) %MON dynstat_theta_del2           =   1.5580742601054E-01
(PID.TID 0000.0001) %MON dynstat_salt_max             =   3.7435804336658E+01
(PID.TID 0000.0001) %MON dynstat_salt_min             =   3.1005921675483E+01
(PID.TID 0000.0001) %MON dynstat_salt_mean            =   3.4717593640648E+01
(PID.TID 0000.0001) %MON dynstat_salt_sd              =   2.8268072366362E-01
(PID.TID 0000.0001) %MON dynstat_salt_del2            =   2.6054098621689E-02
(PID.TID 0000.0001) %MON advcfl_uvel_max              =   1.0759302322610E-01
(PID.TID 0000.0001) %MON advcfl_vvel_max              =   8.8086659631966E-02
(PID.TID 0000.0001) %MON advcfl_wvel_max              =   7.5064465790718E-01
(PID.TID 0000.0001) %MON advcfl_W_hf_max              =   7.4678901079909E-01
(PID.TID 0000.0001) %MON pe_b_mean                    =   8.8828661103657E-05
(PID.TID 0000.0001) %MON ke_max                       =   4.0559527424521E-02
(PID.TID 0000.0001) %MON ke_mean                      =   2.6803779160694E-04
(PID.TID 0000.0001) %MON ke_vol                       =   1.4474490094807E+18
(PID.TID 0000.0001) %MON vort_r_min                   =  -8.3391034095183E-07
(PID.TID 0000.0001) %MON vort_r_max                   =   8.7078611215124E-07
(PID.TID 0000.0001) %MON vort_a_mean                  =  -1.8569334076122E-05
(PID.TID 0000.0001) %MON vort_a_sd                    =   7.3616553928820E-05
(PID.TID 0000.0001) %MON vort_p_mean                  =  -2.1757776080170E-05
(PID.TID 0000.0001) %MON vort_p_sd                    =   9.9826718135306E-05
(PID.TID 0000.0001) %MON surfExpan_theta_mean         =   2.3673180484048E-04
(PID.TID 0000.0001) %MON surfExpan_salt_mean          =   2.0230564659027E-05
(PID.TID 0000.0001) // =======================================================
(PID.TID 0000.0001) // End MONITOR dynamic field statistics
(PID.TID 0000.0001) // =======================================================
 cg2d: Sum(rhs),rhsMax =   2.21600515715181E-13  9.73218868095093E+00
(PID.TID 0000.0001)                    cg2d_init_res =    1.35951482575457E+00
(PID.TID 0000.0001)                       cg2d_iters =    40
(PID.TID 0000.0001)                         cg2d_res =    8.25083553655317E-14
(PID.TID 0000.0001) // =======================================================
(PID.TID 0000.0001) // Begin MONITOR dynamic field statistics
(PID.TID 0000.0001) // =======================================================
(PID.TID 0000.0001) %MON time_tsnumber                =                     4
(PID.TID 0000.0001) %MON time_secondsf                =   4.3200000000000E+05
(PID.TID 0000.0001) %MON dynstat_eta_max              =   1.2814847467224E+00
(PID.TID 0000.0001) %MON dynstat_eta_min              =  -1.2851090794281E+00
(PID.TID 0000.0001) %MON dynstat_eta_mean             =  -5.1013855936759E-16
(PID.TID 0000.0001) %MON dynstat_eta_sd               =   3.6636790546445E-01
(PID.TID 0000.0001) %MON dynstat_eta_del2             =   2.5083035102033E-02
(PID.TID 0000.0001) %MON dynstat_uvel_max             =   2.6196162921619E-01
(PID.TID 0000.0001) %MON dynstat_uvel_min             =  -3.5377892679542E-01
(PID.TID 0000.0001) %MON dynstat_uvel_mean            =  -8.5520425562443E-03
(PID.TID 0000.0001) %MON dynstat_uvel_sd              =   1.5361659377931E-02
(PID.TID 0000.0001) %MON dynstat_uvel_del2            =   2.7434758276384E-03
(PID.TID 0000.0001) %MON dynstat_vvel_max             =   3.3890613040185E-01
(PID.TID 0000.0001) %MON dynstat_vvel_min             =  -4.7150551352289E-01
(PID.TID 0000.0001) %MON dynstat_vvel_mean            =   7.4141732642707E-03
(PID.TID 0000.0001) %MON dynstat_vvel_sd              =   2.2097973574450E-02
(PID.TID 0000.0001) %MON dynstat_vvel_del2            =   3.7638727122076E-03
(PID.TID 0000.0001) %MON dynstat_wvel_max             =   1.7005067883302E-03
(PID.TID 0000.0001) %MON dynstat_wvel_min             =  -1.0948464387007E-03
(PID.TID 0000.0001) %MON dynstat_wvel_mean            =   3.6670959987963E-22
(PID.TID 0000.0001) %MON dynstat_wvel_sd              =   6.8800262616822E-05
(PID.TID 0000.0001) %MON dynstat_wvel_del2            =   1.4216159382653E-05
(PID.TID 0000.0001) %MON dynstat_theta_max            =   2.9320700399301E+01
(PID.TID 0000.0001) %MON dynstat_theta_min            =  -1.8594192904521E+00
(PID.TID 0000.0001) %MON dynstat_theta_mean           =   3.4262000874935E+00
(PID.TID 0000.0001) %MON dynstat_theta_sd             =   4.2195291110537E+00
(PID.TID 0000.0001) %MON dynstat_theta_del2           =   1.5460550271459E-01
(PID.TID 0000.0001) %MON dynstat_salt_max             =   3.7433152259929E+01
(PID.TID 0000.0001) %MON dynstat_salt_min             =   3.0982908441669E+01
(PID.TID 0000.0001) %MON dynstat_salt_mean            =   3.4717049868476E+01
(PID.TID 0000.0001) %MON dynstat_salt_sd              =   2.8279915547623E-01
(PID.TID 0000.0001) %MON dynstat_salt_del2            =   2.5859593794165E-02
(PID.TID 0000.0001) %MON advcfl_uvel_max              =   1.2566636348522E-01
(PID.TID 0000.0001) %MON advcfl_vvel_max              =   1.1450744904777E-01
(PID.TID 0000.0001) %MON advcfl_wvel_max              =   7.0764916929076E-01
(PID.TID 0000.0001) %MON advcfl_W_hf_max              =   8.2041212829304E-01
(PID.TID 0000.0001) %MON pe_b_mean                    =   1.5171563388120E-04
(PID.TID 0000.0001) %MON ke_max                       =   6.6724695497647E-02
(PID.TID 0000.0001) %MON ke_mean                      =   3.8682141036935E-04
(PID.TID 0000.0001) %MON ke_vol                       =   1.4474490094807E+18
(PID.TID 0000.0001) %MON vort_r_min                   =  -1.0603827213073E-06
(PID.TID 0000.0001) %MON vort_r_max                   =   1.1317096800414E-06
(PID.TID 0000.0001) %MON vort_a_mean                  =  -1.8569334076122E-05
(PID.TID 0000.0001) %MON vort_a_sd                    =   7.3616077181746E-05
(PID.TID 0000.0001) %MON vort_p_mean                  =  -2.1757776080170E-05
(PID.TID 0000.0001) %MON vort_p_sd                    =   9.9825726894044E-05
(PID.TID 0000.0001) %MON surfExpan_theta_mean         =   2.4754284091759E-04
(PID.TID 0000.0001) %MON surfExpan_salt_mean          =   2.0300091795254E-05
(PID.TID 0000.0001) // =======================================================
(PID.TID 0000.0001) // End MONITOR dynamic field statistics
(PID.TID 0000.0001) // =======================================================
 cg2d: Sum(rhs),rhsMax =   2.63788990650937E-13  9.93602092752588E+00
(PID.TID 0000.0001)                    cg2d_init_res =    1.05900961313998E+00
(PID.TID 0000.0001)                       cg2d_iters =    40
(PID.TID 0000.0001)                         cg2d_res =    6.94354569014207E-14
(PID.TID 0000.0001) // =======================================================
(PID.TID 0000.0001) // Begin MONITOR dynamic field statistics
(PID.TID 0000.0001) // =======================================================
(PID.TID 0000.0001) %MON time_tsnumber                =                     5
(PID.TID 0000.0001) %MON time_secondsf                =   5.4000000000000E+05
(PID.TID 0000.0001) %MON dynstat_eta_max              =   1.4725741097302E+00
(PID.TID 0000.0001) %MON dynstat_eta_min              =  -1.4662557097210E+00
(PID.TID 0000.0001) %MON dynstat_eta_mean             =  -4.4221377414418E-16
(PID.TID 0000.0001) %MON dynstat_eta_sd               =   4.3825345071766E-01
(PID.TID 0000.0001) %MON dynstat_eta_del2             =   2.4388655943894E-02
(PID.TID 0000.0001) %MON dynstat_uvel_max             =   3.0622247114398E-01
(PID.TID 0000.0001) %MON dynstat_uvel_min             =  -4.2816778324342E-01
(PID.TID 0000.0001) %MON dynstat_uvel_mean            =  -1.0704913261702E-02
(PID.TID 0000.0001) %MON dynstat_uvel_sd              =   1.9219846700163E-02
(PID.TID 0000.0001) %MON dynstat_uvel_del2            =   3.1264078965949E-03
(PID.TID 0000.0001) %MON dynstat_vvel_max             =   4.1809846844876E-01
(PID.TID 0000.0001) %MON dynstat_vvel_min             =  -5.8228869088488E-01
(PID.TID 0000.0001) %MON dynstat_vvel_mean            =   7.4492755049060E-03
(PID.TID 0000.0001) %MON dynstat_vvel_sd              =   2.3306812048675E-02
(PID.TID 0000.0001) %MON dynstat_vvel_del2            =   4.0827890730425E-03
(PID.TID 0000.0001) %MON dynstat_wvel_max             =   2.1170044924874E-03
(PID.TID 0000.0001) %MON dynstat_wvel_min             =  -1.3688677857180E-03
(PID.TID 0000.0001) %MON dynstat_wvel_mean            =   6.4174179978936E-22
(PID.TID 0000.0001) %MON dynstat_wvel_sd              =   7.6764495189237E-05
(PID.TID 0000.0001) %MON dynstat_wvel_del2            =   1.5709886145962E-05
(PID.TID 0000.0001) %MON dynstat_theta_max            =   2.9310787653686E+01
(PID.TID 0000.0001) %MON dynstat_theta_min            =  -2.0266660262382E+00
(PID.TID 0000.0001) %MON dynstat_theta_mean           =   3.4198983751013E+00
(PID.TID 0000.0001) %MON dynstat_theta_sd             =   4.2058032947077E+00
(PID.TID 0000.0001) %MON dynstat_theta_del2           =   1.5385002527536E-01
(PID.TID 0000.0001) %MON dynstat_salt_max             =   3.7431100785303E+01
(PID.TID 0000.0001) %MON dynstat_salt_min             =   3.0963242714671E+01
(PID.TID 0000.0001) %MON dynstat_salt_mean            =   3.4716545735447E+01
(PID.TID 0000.0001) %MON dynstat_salt_sd              =   2.8281995761612E-01
(PID.TID 0000.0001) %MON dynstat_salt_del2            =   2.5760392752374E-02
(PID.TID 0000.0001) %MON advcfl_uvel_max              =   1.3288126237724E-01
(PID.TID 0000.0001) %MON advcfl_vvel_max              =   1.4141169231387E-01
(PID.TID 0000.0001) %MON advcfl_wvel_max              =   8.7457827773019E-01
(PID.TID 0000.0001) %MON advcfl_W_hf_max              =   1.0768849456932E+00
(PID.TID 0000.0001) %MON pe_b_mean                    =   2.1709318053703E-04
(PID.TID 0000.0001) %MON ke_max                       =   9.9797723537981E-02
(PID.TID 0000.0001) %MON ke_mean                      =   4.9197945630859E-04
(PID.TID 0000.0001) %MON ke_vol                       =   1.4474490094807E+18
(PID.TID 0000.0001) %MON vort_r_min                   =  -1.2943542072658E-06
(PID.TID 0000.0001) %MON vort_r_max                   =   1.3969718497915E-06
(PID.TID 0000.0001) %MON vort_a_mean                  =  -1.8569334076122E-05
(PID.TID 0000.0001) %MON vort_a_sd                    =   7.3615663992292E-05
(PID.TID 0000.0001) %MON vort_p_mean                  =  -2.1757776080170E-05
(PID.TID 0000.0001) %MON vort_p_sd                    =   9.9824910069823E-05
(PID.TID 0000.0001) %MON surfExpan_theta_mean         =   2.3588199843550E-04
(PID.TID 0000.0001) %MON surfExpan_salt_mean          =   1.8300116727848E-05
(PID.TID 0000.0001) // =======================================================
(PID.TID 0000.0001) // End MONITOR dynamic field statistics
(PID.TID 0000.0001) // =======================================================
 cg2d: Sum(rhs),rhsMax =   3.17967874252645E-13  9.36001437754305E+00
(PID.TID 0000.0001)                    cg2d_init_res =    1.13425175778828E+00
(PID.TID 0000.0001)                       cg2d_iters =    40
(PID.TID 0000.0001)                         cg2d_res =    7.49618354710124E-14
(PID.TID 0000.0001) // =======================================================
(PID.TID 0000.0001) // Begin MONITOR dynamic field statistics
(PID.TID 0000.0001) // =======================================================
(PID.TID 0000.0001) %MON time_tsnumber                =                     6
(PID.TID 0000.0001) %MON time_secondsf                =   6.4800000000000E+05
(PID.TID 0000.0001) %MON dynstat_eta_max              =   1.5243916411320E+00
(PID.TID 0000.0001) %MON dynstat_eta_min              =  -1.6296585426935E+00
(PID.TID 0000.0001) %MON dynstat_eta_mean             =  -3.3634479855458E-16
(PID.TID 0000.0001) %MON dynstat_eta_sd               =   4.9018705023404E-01
(PID.TID 0000.0001) %MON dynstat_eta_del2             =   2.3494572502883E-02
(PID.TID 0000.0001) %MON dynstat_uvel_max             =   3.4300438162468E-01
(PID.TID 0000.0001) %MON dynstat_uvel_min             =  -4.8882780782612E-01
(PID.TID 0000.0001) %MON dynstat_uvel_mean            =  -1.2226036331600E-02
(PID.TID 0000.0001) %MON dynstat_uvel_sd              =   2.2544565299563E-02
(PID.TID 0000.0001) %MON dynstat_uvel_del2            =   3.4317813199655E-03
(PID.TID 0000.0001) %MON dynstat_vvel_max             =   4.8521605961952E-01
(PID.TID 0000.0001) %MON dynstat_vvel_min             =  -6.7555537639181E-01
(PID.TID 0000.0001) %MON dynstat_vvel_mean            =   6.9606763878340E-03
(PID.TID 0000.0001) %MON dynstat_vvel_sd              =   2.3756702410974E-02
(PID.TID 0000.0001) %MON dynstat_vvel_del2            =   4.2005028210015E-03
(PID.TID 0000.0001) %MON dynstat_wvel_max             =   2.4692758125246E-03
(PID.TID 0000.0001) %MON dynstat_wvel_min             =  -1.5213220050794E-03
(PID.TID 0000.0001) %MON dynstat_wvel_mean            =  -2.3836123992176E-21
(PID.TID 0000.0001) %MON dynstat_wvel_sd              =   8.0688150633565E-05
(PID.TID 0000.0001) %MON dynstat_wvel_del2            =   1.4981437650603E-05
(PID.TID 0000.0001) %MON dynstat_theta_max            =   2.9293059992581E+01
(PID.TID 0000.0001) %MON dynstat_theta_min            =  -2.3701423069087E+00
(PID.TID 0000.0001) %MON dynstat_theta_mean           =   3.4142287997746E+00
(PID.TID 0000.0001) %MON dynstat_theta_sd             =   4.1918744794036E+00
(PID.TID 0000.0001) %MON dynstat_theta_del2           =   1.5306594924188E-01
(PID.TID 0000.0001) %MON dynstat_salt_max             =   3.7430085585274E+01
(PID.TID 0000.0001) %MON dynstat_salt_min             =   3.0954121841547E+01
(PID.TID 0000.0001) %MON dynstat_salt_mean            =   3.4716121801536E+01
(PID.TID 0000.0001) %MON dynstat_salt_sd              =   2.8273517212107E-01
(PID.TID 0000.0001) %MON dynstat_salt_del2            =   2.5684152291728E-02
(PID.TID 0000.0001) %MON advcfl_uvel_max              =   1.2896464080978E-01
(PID.TID 0000.0001) %MON advcfl_vvel_max              =   1.6406196878411E-01
(PID.TID 0000.0001) %MON advcfl_wvel_max              =   1.0125459718483E+00
(PID.TID 0000.0001) %MON advcfl_W_hf_max              =   1.2498254242175E+00
(PID.TID 0000.0001) %MON pe_b_mean                    =   2.7159336779880E-04
(PID.TID 0000.0001) %MON ke_max                       =   1.3305484267874E-01
(PID.TID 0000.0001) %MON ke_mean                      =   5.7798923140415E-04
(PID.TID 0000.0001) %MON ke_vol                       =   1.4474490094807E+18
(PID.TID 0000.0001) %MON vort_r_min                   =  -1.4974430954304E-06
(PID.TID 0000.0001) %MON vort_r_max                   =   1.6333085602281E-06
(PID.TID 0000.0001) %MON vort_a_mean                  =  -1.8569334076122E-05
(PID.TID 0000.0001) %MON vort_a_sd                    =   7.3615360148040E-05
(PID.TID 0000.0001) %MON vort_p_mean                  =  -2.1757776080170E-05
(PID.TID 0000.0001) %MON vort_p_sd                    =   9.9824379625432E-05
(PID.TID 0000.0001) %MON surfExpan_theta_mean         =   2.0821999596107E-04
(PID.TID 0000.0001) %MON surfExpan_salt_mean          =   1.4803275708529E-05
(PID.TID 0000.0001) // =======================================================
(PID.TID 0000.0001) // End MONITOR dynamic field statistics
(PID.TID 0000.0001) // =======================================================
 cg2d: Sum(rhs),rhsMax =   2.85993451143440E-13  7.82398849047189E+00
(PID.TID 0000.0001)                    cg2d_init_res =    1.41184219916536E+00
(PID.TID 0000.0001)                       cg2d_iters =    40
(PID.TID 0000.0001)                         cg2d_res =    7.16977589616201E-14
(PID.TID 0000.0001) // =======================================================
(PID.TID 0000.0001) // Begin MONITOR dynamic field statistics
(PID.TID 0000.0001) // =======================================================
(PID.TID 0000.0001) %MON time_tsnumber                =                     7
(PID.TID 0000.0001) %MON time_secondsf                =   7.5600000000000E+05
(PID.TID 0000.0001) %MON dynstat_eta_max              =   1.5572314487390E+00
(PID.TID 0000.0001) %MON dynstat_eta_min              =  -1.7454979245428E+00
(PID.TID 0000.0001) %MON dynstat_eta_mean             =  -3.3728169214386E-16
(PID.TID 0000.0001) %MON dynstat_eta_sd               =   5.2138338987354E-01
(PID.TID 0000.0001) %MON dynstat_eta_del2             =   2.2449462727699E-02
(PID.TID 0000.0001) %MON dynstat_uvel_max             =   3.7152560749164E-01
(PID.TID 0000.0001) %MON dynstat_uvel_min             =  -5.3571012546138E-01
(PID.TID 0000.0001) %MON dynstat_uvel_mean            =  -1.2995409352941E-02
(PID.TID 0000.0001) %MON dynstat_uvel_sd              =   2.5199549697173E-02
(PID.TID 0000.0001) %MON dynstat_uvel_del2            =   3.6606742020548E-03
(PID.TID 0000.0001) %MON dynstat_vvel_max             =   5.4166036172148E-01
(PID.TID 0000.0001) %MON dynstat_vvel_min             =  -7.5210302271482E-01
(PID.TID 0000.0001) %MON dynstat_vvel_mean            =   6.1901214874974E-03
(PID.TID 0000.0001) %MON dynstat_vvel_sd              =   2.3889381290845E-02
(PID.TID 0000.0001) %MON dynstat_vvel_del2            =   4.1287996212155E-03
(PID.TID 0000.0001) %MON dynstat_wvel_max             =   2.7644602133661E-03
(PID.TID 0000.0001) %MON dynstat_wvel_min             =  -1.6125358057113E-03
(PID.TID 0000.0001) %MON dynstat_wvel_mean            =   6.4174179978936E-22
(PID.TID 0000.0001) %MON dynstat_wvel_sd              =   8.3028623750501E-05
(PID.TID 0000.0001) %MON dynstat_wvel_del2            =   1.3669866154177E-05
(PID.TID 0000.0001) %MON dynstat_theta_max            =   2.9269945527499E+01
(PID.TID 0000.0001) %MON dynstat_theta_min            =  -2.6562750926746E+00
(PID.TID 0000.0001) %MON dynstat_theta_mean           =   3.4094919013026E+00
(PID.TID 0000.0001) %MON dynstat_theta_sd             =   4.1784260260128E+00
(PID.TID 0000.0001) %MON dynstat_theta_del2           =   1.5189016704874E-01
(PID.TID 0000.0001) %MON dynstat_salt_max             =   3.7429818330742E+01
(PID.TID 0000.0001) %MON dynstat_salt_min             =   3.0958139212842E+01
(PID.TID 0000.0001) %MON dynstat_salt_mean            =   3.4715806234505E+01
(PID.TID 0000.0001) %MON dynstat_salt_sd              =   2.8255174161456E-01
(PID.TID 0000.0001) %MON dynstat_salt_del2            =   2.5615693633048E-02
(PID.TID 0000.0001) %MON advcfl_uvel_max              =   1.3210685702532E-01
(PID.TID 0000.0001) %MON advcfl_vvel_max              =   1.8265194378900E-01
(PID.TID 0000.0001) %MON advcfl_wvel_max              =   1.1124188641691E+00
(PID.TID 0000.0001) %MON advcfl_W_hf_max              =   1.3809883802386E+00
(PID.TID 0000.0001) %MON pe_b_mean                    =   3.0726272332870E-04
(PID.TID 0000.0001) %MON ke_max                       =   1.6424228862472E-01
(PID.TID 0000.0001) %MON ke_mean                      =   6.4326493634545E-04
(PID.TID 0000.0001) %MON ke_vol                       =   1.4474490094807E+18
(PID.TID 0000.0001) %MON vort_r_min                   =  -1.6592338099214E-06
(PID.TID 0000.0001) %MON vort_r_max                   =   1.8420731010765E-06
(PID.TID 0000.0001) %MON vort_a_mean                  =  -1.8569334076122E-05
(PID.TID 0000.0001) %MON vort_a_sd                    =   7.3615190284025E-05
(PID.TID 0000.0001) %MON vort_p_mean                  =  -2.1757776080170E-05
(PID.TID 0000.0001) %MON vort_p_sd                    =   9.9824156259950E-05
(PID.TID 0000.0001) %MON surfExpan_theta_mean         =   1.7064041130928E-04
(PID.TID 0000.0001) %MON surfExpan_salt_mean          =   1.0504961443643E-05
(PID.TID 0000.0001) // =======================================================
(PID.TID 0000.0001) // End MONITOR dynamic field statistics
(PID.TID 0000.0001) // =======================================================
 cg2d: Sum(rhs),rhsMax =   2.80664380625240E-13  8.74743688360549E+00
(PID.TID 0000.0001)                    cg2d_init_res =    9.92419898122327E-01
(PID.TID 0000.0001)                       cg2d_iters =    39
(PID.TID 0000.0001)                         cg2d_res =    7.77629406138089E-14
(PID.TID 0000.0001) // =======================================================
(PID.TID 0000.0001) // Begin MONITOR dynamic field statistics
(PID.TID 0000.0001) // =======================================================
(PID.TID 0000.0001) %MON time_tsnumber                =                     8
(PID.TID 0000.0001) %MON time_secondsf                =   8.6400000000000E+05
(PID.TID 0000.0001) %MON dynstat_eta_max              =   1.5293479902848E+00
(PID.TID 0000.0001) %MON dynstat_eta_min              =  -1.7382081426029E+00
(PID.TID 0000.0001) %MON dynstat_eta_mean             =  -4.1785454082268E-16
(PID.TID 0000.0001) %MON dynstat_eta_sd               =   5.3496942486126E-01
(PID.TID 0000.0001) %MON dynstat_eta_del2             =   2.1499155659240E-02
(PID.TID 0000.0001) %MON dynstat_uvel_max             =   3.9036794276826E-01
(PID.TID 0000.0001) %MON dynstat_uvel_min             =  -5.7123609142396E-01
(PID.TID 0000.0001) %MON dynstat_uvel_mean            =  -1.3011316308849E-02
(PID.TID 0000.0001) %MON dynstat_uvel_sd              =   2.7175759718217E-02
(PID.TID 0000.0001) %MON dynstat_uvel_del2            =   3.8463663817897E-03
(PID.TID 0000.0001) %MON dynstat_vvel_max             =   5.9058770271760E-01
(PID.TID 0000.0001) %MON dynstat_vvel_min             =  -8.1361300435016E-01
(PID.TID 0000.0001) %MON dynstat_vvel_mean            =   5.3701371776679E-03
(PID.TID 0000.0001) %MON dynstat_vvel_sd              =   2.3933626136527E-02
(PID.TID 0000.0001) %MON dynstat_vvel_del2            =   3.9403921914427E-03
(PID.TID 0000.0001) %MON dynstat_wvel_max             =   3.0100071242633E-03
(PID.TID 0000.0001) %MON dynstat_wvel_min             =  -1.6750750516250E-03
(PID.TID 0000.0001) %MON dynstat_wvel_mean            =   1.8106286494057E-21
(PID.TID 0000.0001) %MON dynstat_wvel_sd              =   8.5180376395920E-05
(PID.TID 0000.0001) %MON dynstat_wvel_del2            =   1.2477326036900E-05
(PID.TID 0000.0001) %MON dynstat_theta_max            =   2.9235600266756E+01
(PID.TID 0000.0001) %MON dynstat_theta_min            =  -2.8691935292421E+00
(PID.TID 0000.0001) %MON dynstat_theta_mean           =   3.4058433758873E+00
(PID.TID 0000.0001) %MON dynstat_theta_sd             =   4.1662335562022E+00
(PID.TID 0000.0001) %MON dynstat_theta_del2           =   1.5087727721386E-01
(PID.TID 0000.0001) %MON dynstat_salt_max             =   3.7429714770740E+01
(PID.TID 0000.0001) %MON dynstat_salt_min             =   3.0973947568055E+01
(PID.TID 0000.0001) %MON dynstat_salt_mean            =   3.4715608349860E+01
(PID.TID 0000.0001) %MON dynstat_salt_sd              =   2.8230840381798E-01
(PID.TID 0000.0001) %MON dynstat_salt_del2            =   2.5591452681084E-02
(PID.TID 0000.0001) %MON advcfl_uvel_max              =   1.4086760931101E-01
(PID.TID 0000.0001) %MON advcfl_vvel_max              =   1.9758994745181E-01
(PID.TID 0000.0001) %MON advcfl_wvel_max              =   1.2178022961674E+00
(PID.TID 0000.0001) %MON advcfl_W_hf_max              =   1.5104261958068E+00
(PID.TID 0000.0001) %MON pe_b_mean                    =   3.2348445507159E-04
(PID.TID 0000.0001) %MON ke_max                       =   1.9277494414474E-01
(PID.TID 0000.0001) %MON ke_mean                      =   6.8757428765902E-04
(PID.TID 0000.0001) %MON ke_vol                       =   1.4474490094807E+18
(PID.TID 0000.0001) %MON vort_r_min                   =  -1.7813682511618E-06
(PID.TID 0000.0001) %MON vort_r_max                   =   2.0267683731395E-06
(PID.TID 0000.0001) %MON vort_a_mean                  =  -1.8569334076122E-05
(PID.TID 0000.0001) %MON vort_a_sd                    =   7.3615159618582E-05
(PID.TID 0000.0001) %MON vort_p_mean                  =  -2.1757776080170E-05
(PID.TID 0000.0001) %MON vort_p_sd                    =   9.9824211811686E-05
(PID.TID 0000.0001) %MON surfExpan_theta_mean         =   1.2856369040288E-04
(PID.TID 0000.0001) %MON surfExpan_salt_mean          =   6.1050827009355E-06
(PID.TID 0000.0001) // =======================================================
(PID.TID 0000.0001) // End MONITOR dynamic field statistics
(PID.TID 0000.0001) // =======================================================
 cg2d: Sum(rhs),rhsMax =   1.54543045027822E-13  9.97897095235667E+00
(PID.TID 0000.0001)                    cg2d_init_res =    8.47464886797546E-01
(PID.TID 0000.0001)                       cg2d_iters =    39
(PID.TID 0000.0001)                         cg2d_res =    4.82286118244316E-14
(PID.TID 0000.0001) // =======================================================
(PID.TID 0000.0001) // Begin MONITOR dynamic field statistics
(PID.TID 0000.0001) // =======================================================
(PID.TID 0000.0001) %MON time_tsnumber                =                     9
(PID.TID 0000.0001) %MON time_secondsf                =   9.7200000000000E+05
(PID.TID 0000.0001) %MON dynstat_eta_max              =   1.4482197519502E+00
(PID.TID 0000.0001) %MON dynstat_eta_min              =  -1.6513594625197E+00
(PID.TID 0000.0001) %MON dynstat_eta_mean             =  -6.3521385353761E-16
(PID.TID 0000.0001) %MON dynstat_eta_sd               =   5.3612514168713E-01
(PID.TID 0000.0001) %MON dynstat_eta_del2             =   2.0891684797664E-02
(PID.TID 0000.0001) %MON dynstat_uvel_max             =   4.0205953553864E-01
(PID.TID 0000.0001) %MON dynstat_uvel_min             =  -5.9256991388215E-01
(PID.TID 0000.0001) %MON dynstat_uvel_mean            =  -1.2360863482179E-02
(PID.TID 0000.0001) %MON dynstat_uvel_sd              =   2.8532801214980E-02
(PID.TID 0000.0001) %MON dynstat_uvel_del2            =   4.0189744160641E-03
(PID.TID 0000.0001) %MON dynstat_vvel_max             =   6.2916644212255E-01
(PID.TID 0000.0001) %MON dynstat_vvel_min             =  -8.5294035423064E-01
(PID.TID 0000.0001) %MON dynstat_vvel_mean            =   4.6781627520947E-03
(PID.TID 0000.0001) %MON dynstat_vvel_sd              =   2.3894768951815E-02
(PID.TID 0000.0001) %MON dynstat_vvel_del2            =   3.7411385475522E-03
(PID.TID 0000.0001) %MON dynstat_wvel_max             =   3.1744144191626E-03
(PID.TID 0000.0001) %MON dynstat_wvel_min             =  -1.6748268374076E-03
(PID.TID 0000.0001) %MON dynstat_wvel_mean            =   2.2460962992628E-21
(PID.TID 0000.0001) %MON dynstat_wvel_sd              =   8.5842684384702E-05
(PID.TID 0000.0001) %MON dynstat_wvel_del2            =   1.1297979592500E-05
(PID.TID 0000.0001) %MON dynstat_theta_max            =   2.9194367377273E+01
(PID.TID 0000.0001) %MON dynstat_theta_min            =  -3.0077318000936E+00
(PID.TID 0000.0001) %MON dynstat_theta_mean           =   3.4033134617948E+00
(PID.TID 0000.0001) %MON dynstat_theta_sd             =   4.1559560867232E+00
(PID.TID 0000.0001) %MON dynstat_theta_del2           =   1.5020902998359E-01
(PID.TID 0000.0001) %MON dynstat_salt_max             =   3.7429365285050E+01
(PID.TID 0000.0001) %MON dynstat_salt_min             =   3.0998347820407E+01
(PID.TID 0000.0001) %MON dynstat_salt_mean            =   3.4715520052747E+01
(PID.TID 0000.0001) %MON dynstat_salt_sd              =   2.8205273434285E-01
(PID.TID 0000.0001) %MON dynstat_salt_del2            =   2.5591535306214E-02
(PID.TID 0000.0001) %MON advcfl_uvel_max              =   1.4612855940199E-01
(PID.TID 0000.0001) %MON advcfl_vvel_max              =   2.0714078913545E-01
(PID.TID 0000.0001) %MON advcfl_wvel_max              =   1.2832786286699E+00
(PID.TID 0000.0001) %MON advcfl_W_hf_max              =   1.5929332333208E+00
(PID.TID 0000.0001) %MON pe_b_mean                    =   3.2488363879716E-04
(PID.TID 0000.0001) %MON ke_max                       =   2.1533788602739E-01
(PID.TID 0000.0001) %MON ke_mean                      =   7.1068525341067E-04
(PID.TID 0000.0001) %MON ke_vol                       =   1.4474490094807E+18
(PID.TID 0000.0001) %MON vort_r_min                   =  -1.8601004536385E-06
(PID.TID 0000.0001) %MON vort_r_max                   =   2.1774948649197E-06
(PID.TID 0000.0001) %MON vort_a_mean                  =  -1.8569334076122E-05
(PID.TID 0000.0001) %MON vort_a_sd                    =   7.3615257782302E-05
(PID.TID 0000.0001) %MON vort_p_mean                  =  -2.1757776080170E-05
(PID.TID 0000.0001) %MON vort_p_sd                    =   9.9824491912736E-05
(PID.TID 0000.0001) %MON surfExpan_theta_mean         =   8.7090885025293E-05
(PID.TID 0000.0001) %MON surfExpan_salt_mean          =   2.1447998694690E-06
(PID.TID 0000.0001) // =======================================================
(PID.TID 0000.0001) // End MONITOR dynamic field statistics
(PID.TID 0000.0001) // =======================================================
 cg2d: Sum(rhs),rhsMax =   3.12194714524594E-13  1.19122233186640E+01
(PID.TID 0000.0001)                    cg2d_init_res =    7.52938095241486E-01
(PID.TID 0000.0001)                       cg2d_iters =    39
(PID.TID 0000.0001)                         cg2d_res =    9.16263752316589E-14
(PID.TID 0000.0001) // =======================================================
(PID.TID 0000.0001) // Begin MONITOR dynamic field statistics
(PID.TID 0000.0001) // =======================================================
(PID.TID 0000.0001) %MON time_tsnumber                =                    10
(PID.TID 0000.0001) %MON time_secondsf                =   1.0800000000000E+06
(PID.TID 0000.0001) %MON dynstat_eta_max              =   1.4887320186189E+00
(PID.TID 0000.0001) %MON dynstat_eta_min              =  -1.5494940371142E+00
(PID.TID 0000.0001) %MON dynstat_eta_mean             =  -3.7288364853683E-16
(PID.TID 0000.0001) %MON dynstat_eta_sd               =   5.3026100347805E-01
(PID.TID 0000.0001) %MON dynstat_eta_del2             =   2.0482174058434E-02
(PID.TID 0000.0001) %MON dynstat_uvel_max             =   4.0778923494008E-01
(PID.TID 0000.0001) %MON dynstat_uvel_min             =  -5.9839110844621E-01
(PID.TID 0000.0001) %MON dynstat_uvel_mean            =  -1.1192470704494E-02
(PID.TID 0000.0001) %MON dynstat_uvel_sd              =   2.9332753241201E-02
(PID.TID 0000.0001) %MON dynstat_uvel_del2            =   4.1917482671630E-03
(PID.TID 0000.0001) %MON dynstat_vvel_max             =   6.5538338758155E-01
(PID.TID 0000.0001) %MON dynstat_vvel_min             =  -8.6582488592363E-01
(PID.TID 0000.0001) %MON dynstat_vvel_mean            =   4.2208340820203E-03
(PID.TID 0000.0001) %MON dynstat_vvel_sd              =   2.3726640410576E-02
(PID.TID 0000.0001) %MON dynstat_vvel_del2            =   3.6175310502349E-03
(PID.TID 0000.0001) %MON dynstat_wvel_max             =   3.2444919517741E-03
(PID.TID 0000.0001) %MON dynstat_wvel_min             =  -1.5956443940467E-03
(PID.TID 0000.0001) %MON dynstat_wvel_mean            =   9.1677399969909E-22
(PID.TID 0000.0001) %MON dynstat_wvel_sd              =   8.4794046807733E-05
(PID.TID 0000.0001) %MON dynstat_wvel_del2            =   1.0610882948899E-05
(PID.TID 0000.0001) %MON dynstat_theta_max            =   2.9163296812038E+01
(PID.TID 0000.0001) %MON dynstat_theta_min            =  -3.0773581843385E+00
(PID.TID 0000.0001) %MON dynstat_theta_mean           =   3.4018109644654E+00
(PID.TID 0000.0001) %MON dynstat_theta_sd             =   4.1480179626217E+00
(PID.TID 0000.0001) %MON dynstat_theta_del2           =   1.4947586101651E-01
(PID.TID 0000.0001) %MON dynstat_salt_max             =   3.7428728505256E+01
(PID.TID 0000.0001) %MON dynstat_salt_min             =   3.1027628967341E+01
(PID.TID 0000.0001) %MON dynstat_salt_mean            =   3.4715522303090E+01
(PID.TID 0000.0001) %MON dynstat_salt_sd              =   2.8181832486576E-01
(PID.TID 0000.0001) %MON dynstat_salt_del2            =   2.5609821257239E-02
(PID.TID 0000.0001) %MON advcfl_uvel_max              =   1.4756407402350E-01
(PID.TID 0000.0001) %MON advcfl_vvel_max              =   2.1026986146658E-01
(PID.TID 0000.0001) %MON advcfl_wvel_max              =   1.2898111788200E+00
(PID.TID 0000.0001) %MON advcfl_W_hf_max              =   1.6081736889677E+00
(PID.TID 0000.0001) %MON pe_b_mean                    =   3.1781535165335E-04
(PID.TID 0000.0001) %MON ke_max                       =   2.2954711201581E-01
(PID.TID 0000.0001) %MON ke_mean                      =   7.1383980463802E-04
(PID.TID 0000.0001) %MON ke_vol                       =   1.4474490094807E+18
(PID.TID 0000.0001) %MON vort_r_min                   =  -1.8915651428595E-06
(PID.TID 0000.0001) %MON vort_r_max                   =   2.2888144848565E-06
(PID.TID 0000.0001) %MON vort_a_mean                  =  -1.8569334076122E-05
(PID.TID 0000.0001) %MON vort_a_sd                    =   7.3615462135997E-05
(PID.TID 0000.0001) %MON vort_p_mean                  =  -2.1757776080170E-05
(PID.TID 0000.0001) %MON vort_p_sd                    =   9.9824916479197E-05
(PID.TID 0000.0001) %MON surfExpan_theta_mean         =   5.0513397650647E-05
(PID.TID 0000.0001) %MON surfExpan_salt_mean          =  -9.9691517309258E-07
(PID.TID 0000.0001) // =======================================================
(PID.TID 0000.0001) // End MONITOR dynamic field statistics
(PID.TID 0000.0001) // =======================================================
 cg2d: Sum(rhs),rhsMax =   1.76969550125250E-13  1.23481016238544E+01
(PID.TID 0000.0001)                    cg2d_init_res =    6.89327909054658E-01
(PID.TID 0000.0001)                       cg2d_iters =    39
(PID.TID 0000.0001)                         cg2d_res =    9.18303817418007E-14
(PID.TID 0000.0001) // =======================================================
(PID.TID 0000.0001) // Begin MONITOR dynamic field statistics
(PID.TID 0000.0001) // =======================================================
(PID.TID 0000.0001) %MON time_tsnumber                =                    11
(PID.TID 0000.0001) %MON time_secondsf                =   1.1880000000000E+06
(PID.TID 0000.0001) %MON dynstat_eta_max              =   1.7069374673921E+00
(PID.TID 0000.0001) %MON dynstat_eta_min              =  -1.5104921787542E+00
(PID.TID 0000.0001) %MON dynstat_eta_mean             =  -8.9941784571697E-17
(PID.TID 0000.0001) %MON dynstat_eta_sd               =   5.2157699145342E-01
(PID.TID 0000.0001) %MON dynstat_eta_del2             =   2.0150517729225E-02
(PID.TID 0000.0001) %MON dynstat_uvel_max             =   4.0534783766807E-01
(PID.TID 0000.0001) %MON dynstat_uvel_min             =  -5.9111037334184E-01
(PID.TID 0000.0001) %MON dynstat_uvel_mean            =  -9.6878876774620E-03
(PID.TID 0000.0001) %MON dynstat_uvel_sd              =   2.9618423629899E-02
(PID.TID 0000.0001) %MON dynstat_uvel_del2            =   4.3426037362681E-03
(PID.TID 0000.0001) %MON dynstat_vvel_max             =   6.7084691907271E-01
(PID.TID 0000.0001) %MON dynstat_vvel_min             =  -8.5482088006938E-01
(PID.TID 0000.0001) %MON dynstat_vvel_mean            =   4.0380414367056E-03
(PID.TID 0000.0001) %MON dynstat_vvel_sd              =   2.3465780109210E-02
(PID.TID 0000.0001) %MON dynstat_vvel_del2            =   3.6340182141257E-03
(PID.TID 0000.0001) %MON dynstat_wvel_max             =   3.2364941656245E-03
(PID.TID 0000.0001) %MON dynstat_wvel_min             =  -1.4468756217816E-03
(PID.TID 0000.0001) %MON dynstat_wvel_mean            =  -3.3003863989167E-21
(PID.TID 0000.0001) %MON dynstat_wvel_sd              =   8.2941292338651E-05
(PID.TID 0000.0001) %MON dynstat_wvel_del2            =   1.0708641584093E-05
(PID.TID 0000.0001) %MON dynstat_theta_max            =   2.9143233464892E+01
(PID.TID 0000.0001) %MON dynstat_theta_min            =  -3.0868831317137E+00
(PID.TID 0000.0001) %MON dynstat_theta_mean           =   3.4011503453734E+00
(PID.TID 0000.0001) %MON dynstat_theta_sd             =   4.1425921541091E+00
(PID.TID 0000.0001) %MON dynstat_theta_del2           =   1.4903864518570E-01
(PID.TID 0000.0001) %MON dynstat_salt_max             =   3.7427938197466E+01
(PID.TID 0000.0001) %MON dynstat_salt_min             =   3.1057750093734E+01
(PID.TID 0000.0001) %MON dynstat_salt_mean            =   3.4715589232313E+01
(PID.TID 0000.0001) %MON dynstat_salt_sd              =   2.8162885348267E-01
(PID.TID 0000.0001) %MON dynstat_salt_del2            =   2.5621399843518E-02
(PID.TID 0000.0001) %MON advcfl_uvel_max              =   1.4576863468839E-01
(PID.TID 0000.0001) %MON advcfl_vvel_max              =   2.0759748414853E-01
(PID.TID 0000.0001) %MON advcfl_wvel_max              =   1.2581207099370E+00
(PID.TID 0000.0001) %MON advcfl_W_hf_max              =   1.5750152354621E+00
(PID.TID 0000.0001) %MON pe_b_mean                    =   3.0749095305059E-04
(PID.TID 0000.0001) %MON ke_max                       =   2.3576107393594E-01
(PID.TID 0000.0001) %MON ke_mean                      =   7.0092318643515E-04
(PID.TID 0000.0001) %MON ke_vol                       =   1.4474490094807E+18
(PID.TID 0000.0001) %MON vort_r_min                   =  -1.8777534634804E-06
(PID.TID 0000.0001) %MON vort_r_max                   =   2.3632569576407E-06
(PID.TID 0000.0001) %MON vort_a_mean                  =  -1.8569334076122E-05
(PID.TID 0000.0001) %MON vort_a_sd                    =   7.3615741879792E-05
(PID.TID 0000.0001) %MON vort_p_mean                  =  -2.1757776080170E-05
(PID.TID 0000.0001) %MON vort_p_sd                    =   9.9825400276704E-05
(PID.TID 0000.0001) %MON surfExpan_theta_mean         =   2.1817431962220E-05
(PID.TID 0000.0001) %MON surfExpan_salt_mean          =  -3.1084717434654E-06
(PID.TID 0000.0001) // =======================================================
(PID.TID 0000.0001) // End MONITOR dynamic field statistics
(PID.TID 0000.0001) // =======================================================
 cg2d: Sum(rhs),rhsMax =   4.01900734914307E-14  1.33385535525677E+01
(PID.TID 0000.0001)                    cg2d_init_res =    6.16599789253266E-01
(PID.TID 0000.0001)                       cg2d_iters =    39
(PID.TID 0000.0001)                         cg2d_res =    8.96198609871112E-14
(PID.TID 0000.0001) // =======================================================
(PID.TID 0000.0001) // Begin MONITOR dynamic field statistics
(PID.TID 0000.0001) // =======================================================
(PID.TID 0000.0001) %MON time_tsnumber                =                    12
(PID.TID 0000.0001) %MON time_secondsf                =   1.2960000000000E+06
(PID.TID 0000.0001) %MON dynstat_eta_max              =   1.8518746528126E+00
(PID.TID 0000.0001) %MON dynstat_eta_min              =  -1.4632170397109E+00
(PID.TID 0000.0001) %MON dynstat_eta_mean             =   4.9233758117111E-16
(PID.TID 0000.0001) %MON dynstat_eta_sd               =   5.1288775612430E-01
(PID.TID 0000.0001) %MON dynstat_eta_del2             =   2.0085922575596E-02
(PID.TID 0000.0001) %MON dynstat_uvel_max             =   3.9551940935597E-01
(PID.TID 0000.0001) %MON dynstat_uvel_min             =  -5.7292554557539E-01
(PID.TID 0000.0001) %MON dynstat_uvel_mean            =  -8.0334571618786E-03
(PID.TID 0000.0001) %MON dynstat_uvel_sd              =   2.9422190423381E-02
(PID.TID 0000.0001) %MON dynstat_uvel_del2            =   4.4356836732992E-03
(PID.TID 0000.0001) %MON dynstat_vvel_max             =   6.7693238635631E-01
(PID.TID 0000.0001) %MON dynstat_vvel_min             =  -8.2293607556514E-01
(PID.TID 0000.0001) %MON dynstat_vvel_mean            =   4.1122605678511E-03
(PID.TID 0000.0001) %MON dynstat_vvel_sd              =   2.3213729579800E-02
(PID.TID 0000.0001) %MON dynstat_vvel_del2            =   3.7908646996695E-03
(PID.TID 0000.0001) %MON dynstat_wvel_max             =   3.1634088191053E-03
(PID.TID 0000.0001) %MON dynstat_wvel_min             =  -1.2434260048812E-03
(PID.TID 0000.0001) %MON dynstat_wvel_mean            =   3.6670959987963E-22
(PID.TID 0000.0001) %MON dynstat_wvel_sd              =   8.0612144104256E-05
(PID.TID 0000.0001) %MON dynstat_wvel_del2            =   1.1168532568130E-05
(PID.TID 0000.0001) %MON dynstat_theta_max            =   2.9138830711170E+01
(PID.TID 0000.0001) %MON dynstat_theta_min            =  -3.0481538242494E+00
(PID.TID 0000.0001) %MON dynstat_theta_mean           =   3.4010911630299E+00
(PID.TID 0000.0001) %MON dynstat_theta_sd             =   4.1395616311529E+00
(PID.TID 0000.0001) %MON dynstat_theta_del2           =   1.4885041085465E-01
(PID.TID 0000.0001) %MON dynstat_salt_max             =   3.7427037844987E+01
(PID.TID 0000.0001) %MON dynstat_salt_min             =   3.1084399479391E+01
(PID.TID 0000.0001) %MON dynstat_salt_mean            =   3.4715692324429E+01
(PID.TID 0000.0001) %MON dynstat_salt_sd              =   2.8149005589042E-01
(PID.TID 0000.0001) %MON dynstat_salt_del2            =   2.5630795437592E-02
(PID.TID 0000.0001) %MON advcfl_uvel_max              =   1.4128423103874E-01
(PID.TID 0000.0001) %MON advcfl_vvel_max              =   1.9985410146804E-01
(PID.TID 0000.0001) %MON advcfl_wvel_max              =   1.1960886188990E+00
(PID.TID 0000.0001) %MON advcfl_W_hf_max              =   1.5018326771988E+00
(PID.TID 0000.0001) %MON pe_b_mean                    =   2.9733097552190E-04
(PID.TID 0000.0001) %MON ke_max                       =   2.3461690967925E-01
(PID.TID 0000.0001) %MON ke_mean                      =   6.7713857971671E-04
(PID.TID 0000.0001) %MON ke_vol                       =   1.4474490094807E+18
(PID.TID 0000.0001) %MON vort_r_min                   =  -1.8244000695607E-06
(PID.TID 0000.0001) %MON vort_r_max                   =   2.4015819165785E-06
(PID.TID 0000.0001) %MON vort_a_mean                  =  -1.8569334076122E-05
(PID.TID 0000.0001) %MON vort_a_sd                    =   7.3616063139542E-05
(PID.TID 0000.0001) %MON vort_p_mean                  =  -2.1757776080170E-05
(PID.TID 0000.0001) %MON vort_p_sd                    =   9.9825877890670E-05
(PID.TID 0000.0001) %MON surfExpan_theta_mean         =   2.3880401742408E-06
(PID.TID 0000.0001) %MON surfExpan_salt_mean          =  -4.1424819246379E-06
(PID.TID 0000.0001) // =======================================================
(PID.TID 0000.0001) // End MONITOR dynamic field statistics
(PID.TID 0000.0001) // =======================================================
 cg2d: Sum(rhs),rhsMax =  -1.50990331349021E-13  1.37961804284876E+01
(PID.TID 0000.0001)                    cg2d_init_res =    5.50779474635109E-01
(PID.TID 0000.0001)                       cg2d_iters =    39
(PID.TID 0000.0001)                         cg2d_res =    8.19785216416080E-14
(PID.TID 0000.0001) // =======================================================
(PID.TID 0000.0001) // Begin MONITOR dynamic field statistics
(PID.TID 0000.0001) // =======================================================
(PID.TID 0000.0001) %MON time_tsnumber                =                    13
(PID.TID 0000.0001) %MON time_secondsf                =   1.4040000000000E+06
(PID.TID 0000.0001) %MON dynstat_eta_max              =   1.9446109493363E+00
(PID.TID 0000.0001) %MON dynstat_eta_min              =  -1.4463285634414E+00
(PID.TID 0000.0001) %MON dynstat_eta_mean             =   5.9680121637678E-16
(PID.TID 0000.0001) %MON dynstat_eta_sd               =   5.0609878140958E-01
(PID.TID 0000.0001) %MON dynstat_eta_del2             =   2.0297884859036E-02
(PID.TID 0000.0001) %MON dynstat_uvel_max             =   3.7943563110289E-01
(PID.TID 0000.0001) %MON dynstat_uvel_min             =  -5.4552068062835E-01
(PID.TID 0000.0001) %MON dynstat_uvel_mean            =  -6.3973035798337E-03
(PID.TID 0000.0001) %MON dynstat_uvel_sd              =   2.8776374733241E-02
(PID.TID 0000.0001) %MON dynstat_uvel_del2            =   4.4494549327094E-03
(PID.TID 0000.0001) %MON dynstat_vvel_max             =   6.7383846425227E-01
(PID.TID 0000.0001) %MON dynstat_vvel_min             =  -7.7210584835859E-01
(PID.TID 0000.0001) %MON dynstat_vvel_mean            =   4.3809446250046E-03
(PID.TID 0000.0001) %MON dynstat_vvel_sd              =   2.3057697302627E-02
(PID.TID 0000.0001) %MON dynstat_vvel_del2            =   4.0050570935039E-03
(PID.TID 0000.0001) %MON dynstat_wvel_max             =   3.0258756882498E-03
(PID.TID 0000.0001) %MON dynstat_wvel_min             =  -9.8906778212568E-04
(PID.TID 0000.0001) %MON dynstat_wvel_mean            =  -3.6670959987963E-21
(PID.TID 0000.0001) %MON dynstat_wvel_sd              =   7.7878141268510E-05
(PID.TID 0000.0001) %MON dynstat_wvel_del2            =   1.1653198296596E-05
(PID.TID 0000.0001) %MON dynstat_theta_max            =   2.9149822509991E+01
(PID.TID 0000.0001) %MON dynstat_theta_min            =  -2.9764319132603E+00
(PID.TID 0000.0001) %MON dynstat_theta_mean           =   3.4013821400250E+00
(PID.TID 0000.0001) %MON dynstat_theta_sd             =   4.1385808671411E+00
(PID.TID 0000.0001) %MON dynstat_theta_del2           =   1.4890988966101E-01
(PID.TID 0000.0001) %MON dynstat_salt_max             =   3.7425923681277E+01
(PID.TID 0000.0001) %MON dynstat_salt_min             =   3.1103490189495E+01
(PID.TID 0000.0001) %MON dynstat_salt_mean            =   3.4715804422151E+01
(PID.TID 0000.0001) %MON dynstat_salt_sd              =   2.8139550145329E-01
(PID.TID 0000.0001) %MON dynstat_salt_del2            =   2.5658211961403E-02
(PID.TID 0000.0001) %MON advcfl_uvel_max              =   1.3452615348283E-01
(PID.TID 0000.0001) %MON advcfl_vvel_max              =   1.8750972905879E-01
(PID.TID 0000.0001) %MON advcfl_wvel_max              =   1.1016108261726E+00
(PID.TID 0000.0001) %MON advcfl_W_hf_max              =   1.3888476234618E+00
(PID.TID 0000.0001) %MON pe_b_mean                    =   2.8951167094305E-04
(PID.TID 0000.0001) %MON ke_max                       =   2.2659213788693E-01
(PID.TID 0000.0001) %MON ke_mean                      =   6.4686074750686E-04
(PID.TID 0000.0001) %MON ke_vol                       =   1.4474490094807E+18
(PID.TID 0000.0001) %MON vort_r_min                   =  -1.7363283021365E-06
(PID.TID 0000.0001) %MON vort_r_max                   =   2.4025098042519E-06
(PID.TID 0000.0001) %MON vort_a_mean                  =  -1.8569334076122E-05
(PID.TID 0000.0001) %MON vort_a_sd                    =   7.3616393401324E-05
(PID.TID 0000.0001) %MON vort_p_mean                  =  -2.1757776080170E-05
(PID.TID 0000.0001) %MON vort_p_sd                    =   9.9826306030711E-05
(PID.TID 0000.0001) %MON surfExpan_theta_mean         =  -8.0132767093077E-06
(PID.TID 0000.0001) %MON surfExpan_salt_mean          =  -4.2059719521317E-06
(PID.TID 0000.0001) // =======================================================
(PID.TID 0000.0001) // End MONITOR dynamic field statistics
(PID.TID 0000.0001) // =======================================================
 cg2d: Sum(rhs),rhsMax =  -2.05169214950729E-13  1.39260166900719E+01
(PID.TID 0000.0001)                    cg2d_init_res =    5.45144109352755E-01
(PID.TID 0000.0001)                       cg2d_iters =    38
(PID.TID 0000.0001)                         cg2d_res =    9.89283751601707E-14
(PID.TID 0000.0001) // =======================================================
(PID.TID 0000.0001) // Begin MONITOR dynamic field statistics
(PID.TID 0000.0001) // =======================================================
(PID.TID 0000.0001) %MON time_tsnumber                =                    14
(PID.TID 0000.0001) %MON time_secondsf                =   1.5120000000000E+06
(PID.TID 0000.0001) %MON dynstat_eta_max              =   1.9956064260553E+00
(PID.TID 0000.0001) %MON dynstat_eta_min              =  -1.4254411915727E+00
(PID.TID 0000.0001) %MON dynstat_eta_mean             =  -1.2460684737537E-15
(PID.TID 0000.0001) %MON dynstat_eta_sd               =   5.0250305263050E-01
(PID.TID 0000.0001) %MON dynstat_eta_del2             =   2.0706611656033E-02
(PID.TID 0000.0001) %MON dynstat_uvel_max             =   3.5866056079296E-01
(PID.TID 0000.0001) %MON dynstat_uvel_min             =  -5.1155220562168E-01
(PID.TID 0000.0001) %MON dynstat_uvel_mean            =  -4.9153714267858E-03
(PID.TID 0000.0001) %MON dynstat_uvel_sd              =   2.7729732247564E-02
(PID.TID 0000.0001) %MON dynstat_uvel_del2            =   4.3916866347135E-03
(PID.TID 0000.0001) %MON dynstat_vvel_max             =   6.6251043049295E-01
(PID.TID 0000.0001) %MON dynstat_vvel_min             =  -7.0568923175126E-01
(PID.TID 0000.0001) %MON dynstat_vvel_mean            =   4.7541880778743E-03
(PID.TID 0000.0001) %MON dynstat_vvel_sd              =   2.3015300091831E-02
(PID.TID 0000.0001) %MON dynstat_vvel_del2            =   4.1873770085703E-03
(PID.TID 0000.0001) %MON dynstat_wvel_max             =   2.8263407985085E-03
(PID.TID 0000.0001) %MON dynstat_wvel_min             =  -7.8762941017797E-04
(PID.TID 0000.0001) %MON dynstat_wvel_mean            =   4.2171603986158E-21
(PID.TID 0000.0001) %MON dynstat_wvel_sd              =   7.4798326060112E-05
(PID.TID 0000.0001) %MON dynstat_wvel_del2            =   1.1836934457503E-05
(PID.TID 0000.0001) %MON dynstat_theta_max            =   2.9173352878276E+01
(PID.TID 0000.0001) %MON dynstat_theta_min            =  -2.8897850085834E+00
(PID.TID 0000.0001) %MON dynstat_theta_mean           =   3.4018022283824E+00
(PID.TID 0000.0001) %MON dynstat_theta_sd             =   4.1391617503286E+00
(PID.TID 0000.0001) %MON dynstat_theta_del2           =   1.4922140218843E-01
(PID.TID 0000.0001) %MON dynstat_salt_max             =   3.7424447698762E+01
(PID.TID 0000.0001) %MON dynstat_salt_min             =   3.1111927026099E+01
(PID.TID 0000.0001) %MON dynstat_salt_mean            =   3.4715903447709E+01
(PID.TID 0000.0001) %MON dynstat_salt_sd              =   2.8132353869882E-01
(PID.TID 0000.0001) %MON dynstat_salt_del2            =   2.5688123282698E-02
(PID.TID 0000.0001) %MON advcfl_uvel_max              =   1.2614948061854E-01
(PID.TID 0000.0001) %MON advcfl_vvel_max              =   1.7138012479337E-01
(PID.TID 0000.0001) %MON advcfl_wvel_max              =   9.7773591870186E-01
(PID.TID 0000.0001) %MON advcfl_W_hf_max              =   1.2429181471236E+00
(PID.TID 0000.0001) %MON pe_b_mean                    =   2.8541244202040E-04
(PID.TID 0000.0001) %MON ke_max                       =   2.1304816612431E-01
(PID.TID 0000.0001) %MON ke_mean                      =   6.1272561070576E-04
(PID.TID 0000.0001) %MON ke_vol                       =   1.4474490094807E+18
(PID.TID 0000.0001) %MON vort_r_min                   =  -1.6169984165968E-06
(PID.TID 0000.0001) %MON vort_r_max                   =   2.3680302630799E-06
(PID.TID 0000.0001) %MON vort_a_mean                  =  -1.8569334076122E-05
(PID.TID 0000.0001) %MON vort_a_sd                    =   7.3616704528743E-05
(PID.TID 0000.0001) %MON vort_p_mean                  =  -2.1757776080170E-05
(PID.TID 0000.0001) %MON vort_p_sd                    =   9.9826657050056E-05
(PID.TID 0000.0001) %MON surfExpan_theta_mean         =  -1.0742017720345E-05
(PID.TID 0000.0001) %MON surfExpan_salt_mean          =  -3.5282221737298E-06
(PID.TID 0000.0001) // =======================================================
(PID.TID 0000.0001) // End MONITOR dynamic field statistics
(PID.TID 0000.0001) // =======================================================
 cg2d: Sum(rhs),rhsMax =   4.70734562441066E-13  1.34465204075176E+01
(PID.TID 0000.0001)                    cg2d_init_res =    6.19386015921373E-01
(PID.TID 0000.0001)                       cg2d_iters =    39
(PID.TID 0000.0001)                         cg2d_res =    4.98540453942664E-14
(PID.TID 0000.0001) // =======================================================
(PID.TID 0000.0001) // Begin MONITOR dynamic field statistics
(PID.TID 0000.0001) // =======================================================
(PID.TID 0000.0001) %MON time_tsnumber                =                    15
(PID.TID 0000.0001) %MON time_secondsf                =   1.6200000000000E+06
(PID.TID 0000.0001) %MON dynstat_eta_max              =   1.9867082572892E+00
(PID.TID 0000.0001) %MON dynstat_eta_min              =  -1.4157507264446E+00
(PID.TID 0000.0001) %MON dynstat_eta_mean             =  -6.6332066121627E-16
(PID.TID 0000.0001) %MON dynstat_eta_sd               =   5.0289411685045E-01
(PID.TID 0000.0001) %MON dynstat_eta_del2             =   2.1416230076642E-02
(PID.TID 0000.0001) %MON dynstat_uvel_max             =   3.3461044891358E-01
(PID.TID 0000.0001) %MON dynstat_uvel_min             =  -4.7353528779805E-01
(PID.TID 0000.0001) %MON dynstat_uvel_mean            =  -3.6842232071254E-03
(PID.TID 0000.0001) %MON dynstat_uvel_sd              =   2.6372861596791E-02
(PID.TID 0000.0001) %MON dynstat_uvel_del2            =   4.2645146918358E-03
(PID.TID 0000.0001) %MON dynstat_vvel_max             =   6.4482515383129E-01
(PID.TID 0000.0001) %MON dynstat_vvel_min             =  -6.2829964421423E-01
(PID.TID 0000.0001) %MON dynstat_vvel_mean            =   5.1334228584287E-03
(PID.TID 0000.0001) %MON dynstat_vvel_sd              =   2.3026265132338E-02
(PID.TID 0000.0001) %MON dynstat_vvel_del2            =   4.2937826590583E-03
(PID.TID 0000.0001) %MON dynstat_wvel_max             =   2.5786081015508E-03
(PID.TID 0000.0001) %MON dynstat_wvel_min             =  -7.9227942170755E-04
(PID.TID 0000.0001) %MON dynstat_wvel_mean            =  -6.2340631979538E-21
(PID.TID 0000.0001) %MON dynstat_wvel_sd              =   7.1324668624262E-05
(PID.TID 0000.0001) %MON dynstat_wvel_del2            =   1.1646101897589E-05
(PID.TID 0000.0001) %MON dynstat_theta_max            =   2.9202238392522E+01
(PID.TID 0000.0001) %MON dynstat_theta_min            =  -2.8069090746597E+00
(PID.TID 0000.0001) %MON dynstat_theta_mean           =   3.4021807362097E+00
(PID.TID 0000.0001) %MON dynstat_theta_sd             =   4.1407377549632E+00
(PID.TID 0000.0001) %MON dynstat_theta_del2           =   1.4972029555974E-01
(PID.TID 0000.0001) %MON dynstat_salt_max             =   3.7422524962569E+01
(PID.TID 0000.0001) %MON dynstat_salt_min             =   3.1108377787452E+01
(PID.TID 0000.0001) %MON dynstat_salt_mean            =   3.4715974825449E+01
(PID.TID 0000.0001) %MON dynstat_salt_sd              =   2.8125501261032E-01
(PID.TID 0000.0001) %MON dynstat_salt_del2            =   2.5729984134704E-02
(PID.TID 0000.0001) %MON advcfl_uvel_max              =   1.1677445616265E-01
(PID.TID 0000.0001) %MON advcfl_vvel_max              =   1.5659898204662E-01
(PID.TID 0000.0001) %MON advcfl_wvel_max              =   8.3998588060706E-01
(PID.TID 0000.0001) %MON advcfl_W_hf_max              =   1.0802024131748E+00
(PID.TID 0000.0001) %MON pe_b_mean                    =   2.8585684937066E-04
(PID.TID 0000.0001) %MON ke_max                       =   1.9585651353437E-01
(PID.TID 0000.0001) %MON ke_mean                      =   5.7614438320551E-04
(PID.TID 0000.0001) %MON ke_vol                       =   1.4474490094807E+18
(PID.TID 0000.0001) %MON vort_r_min                   =  -1.4716082973550E-06
(PID.TID 0000.0001) %MON vort_r_max                   =   2.3042032796188E-06
(PID.TID 0000.0001) %MON vort_a_mean                  =  -1.8569334076122E-05
(PID.TID 0000.0001) %MON vort_a_sd                    =   7.3616974718736E-05
(PID.TID 0000.0001) %MON vort_p_mean                  =  -2.1757776080170E-05
(PID.TID 0000.0001) %MON vort_p_sd                    =   9.9826918819633E-05
(PID.TID 0000.0001) %MON surfExpan_theta_mean         =  -7.8611961462112E-06
(PID.TID 0000.0001) %MON surfExpan_salt_mean          =  -2.3917494562244E-06
(PID.TID 0000.0001) // =======================================================
(PID.TID 0000.0001) // End MONITOR dynamic field statistics
(PID.TID 0000.0001) // =======================================================
 cg2d: Sum(rhs),rhsMax =   4.03233002543857E-13  1.23834039965191E+01
(PID.TID 0000.0001)                    cg2d_init_res =    6.71813916685779E-01
(PID.TID 0000.0001)                       cg2d_iters =    39
(PID.TID 0000.0001)                         cg2d_res =    6.97417826126796E-14
(PID.TID 0000.0001) // =======================================================
(PID.TID 0000.0001) // Begin MONITOR dynamic field statistics
(PID.TID 0000.0001) // =======================================================
(PID.TID 0000.0001) %MON time_tsnumber                =                    16
(PID.TID 0000.0001) %MON time_secondsf                =   1.7280000000000E+06
(PID.TID 0000.0001) %MON dynstat_eta_max              =   1.9161159785227E+00
(PID.TID 0000.0001) %MON dynstat_eta_min              =  -1.4285801202505E+00
(PID.TID 0000.0001) %MON dynstat_eta_mean             =  -8.0572848678812E-16
(PID.TID 0000.0001) %MON dynstat_eta_sd               =   5.0740499793351E-01
(PID.TID 0000.0001) %MON dynstat_eta_del2             =   2.2273652181880E-02
(PID.TID 0000.0001) %MON dynstat_uvel_max             =   3.0906985504152E-01
(PID.TID 0000.0001) %MON dynstat_uvel_min             =  -4.3305432071182E-01
(PID.TID 0000.0001) %MON dynstat_uvel_mean            =  -2.7586255534260E-03
(PID.TID 0000.0001) %MON dynstat_uvel_sd              =   2.4849881259664E-02
(PID.TID 0000.0001) %MON dynstat_uvel_del2            =   4.0914431563873E-03
(PID.TID 0000.0001) %MON dynstat_vvel_max             =   6.2242443632586E-01
(PID.TID 0000.0001) %MON dynstat_vvel_min             =  -5.4410609281133E-01
(PID.TID 0000.0001) %MON dynstat_vvel_mean            =   5.4258823105262E-03
(PID.TID 0000.0001) %MON dynstat_vvel_sd              =   2.2986932534410E-02
(PID.TID 0000.0001) %MON dynstat_vvel_del2            =   4.3124283206687E-03
(PID.TID 0000.0001) %MON dynstat_wvel_max             =   2.3036366488110E-03
(PID.TID 0000.0001) %MON dynstat_wvel_min             =  -8.1793250230936E-04
(PID.TID 0000.0001) %MON dynstat_wvel_mean            =   2.9336767990371E-21
(PID.TID 0000.0001) %MON dynstat_wvel_sd              =   6.7551458653807E-05
(PID.TID 0000.0001) %MON dynstat_wvel_del2            =   1.1168007556969E-05
(PID.TID 0000.0001) %MON dynstat_theta_max            =   2.9228809153915E+01
(PID.TID 0000.0001) %MON dynstat_theta_min            =  -2.7451014405005E+00
(PID.TID 0000.0001) %MON dynstat_theta_mean           =   3.4024089184839E+00
(PID.TID 0000.0001) %MON dynstat_theta_sd             =   4.1427699074989E+00
(PID.TID 0000.0001) %MON dynstat_theta_del2           =   1.5011304402412E-01
(PID.TID 0000.0001) %MON dynstat_salt_max             =   3.7420194178308E+01
(PID.TID 0000.0001) %MON dynstat_salt_min             =   3.1093750845545E+01
(PID.TID 0000.0001) %MON dynstat_salt_mean            =   3.4716011780246E+01
(PID.TID 0000.0001) %MON dynstat_salt_sd              =   2.8117283742822E-01
(PID.TID 0000.0001) %MON dynstat_salt_del2            =   2.5758525933956E-02
(PID.TID 0000.0001) %MON advcfl_uvel_max              =   1.0679179375450E-01
(PID.TID 0000.0001) %MON advcfl_vvel_max              =   1.5115885686289E-01
(PID.TID 0000.0001) %MON advcfl_wvel_max              =   7.0703061623610E-01
(PID.TID 0000.0001) %MON advcfl_W_hf_max              =   9.1271225005024E-01
(PID.TID 0000.0001) %MON pe_b_mean                    =   2.9100803076480E-04
(PID.TID 0000.0001) %MON ke_max                       =   1.7664058652553E-01
(PID.TID 0000.0001) %MON ke_mean                      =   5.3823075893308E-04
(PID.TID 0000.0001) %MON ke_vol                       =   1.4474490094807E+18
(PID.TID 0000.0001) %MON vort_r_min                   =  -1.3523405792143E-06
(PID.TID 0000.0001) %MON vort_r_max                   =   2.2180151709729E-06
(PID.TID 0000.0001) %MON vort_a_mean                  =  -1.8569334076122E-05
(PID.TID 0000.0001) %MON vort_a_sd                    =   7.3617189656867E-05
(PID.TID 0000.0001) %MON vort_p_mean                  =  -2.1757776080170E-05
(PID.TID 0000.0001) %MON vort_p_sd                    =   9.9827094463566E-05
(PID.TID 0000.0001) %MON surfExpan_theta_mean         =  -1.6912717648486E-06
(PID.TID 0000.0001) %MON surfExpan_salt_mean          =  -1.0728978744357E-06
(PID.TID 0000.0001) // =======================================================
(PID.TID 0000.0001) // End MONITOR dynamic field statistics
(PID.TID 0000.0001) // =======================================================
 cg2d: Sum(rhs),rhsMax =   3.90798504668055E-13  1.09899905529959E+01
(PID.TID 0000.0001)                    cg2d_init_res =    6.97751696345011E-01
(PID.TID 0000.0001)                       cg2d_iters =    39
(PID.TID 0000.0001)                         cg2d_res =    7.21693606435397E-14
(PID.TID 0000.0001) // =======================================================
(PID.TID 0000.0001) // Begin MONITOR dynamic field statistics
(PID.TID 0000.0001) // =======================================================
(PID.TID 0000.0001) %MON time_tsnumber                =                    17
(PID.TID 0000.0001) %MON time_secondsf                =   1.8360000000000E+06
(PID.TID 0000.0001) %MON dynstat_eta_max              =   1.7991715124605E+00
(PID.TID 0000.0001) %MON dynstat_eta_min              =  -1.4712445268936E+00
(PID.TID 0000.0001) %MON dynstat_eta_mean             =  -8.1697120985958E-16
(PID.TID 0000.0001) %MON dynstat_eta_sd               =   5.1536195992852E-01
(PID.TID 0000.0001) %MON dynstat_eta_del2             =   2.3165262332703E-02
(PID.TID 0000.0001) %MON dynstat_uvel_max             =   2.8294047572682E-01
(PID.TID 0000.0001) %MON dynstat_uvel_min             =  -3.9148609873169E-01
(PID.TID 0000.0001) %MON dynstat_uvel_mean            =  -2.1536163939556E-03
(PID.TID 0000.0001) %MON dynstat_uvel_sd              =   2.3339960030784E-02
(PID.TID 0000.0001) %MON dynstat_uvel_del2            =   3.8977852585267E-03
(PID.TID 0000.0001) %MON dynstat_vvel_max             =   5.9664427233237E-01
(PID.TID 0000.0001) %MON dynstat_vvel_min             =  -4.5614899658563E-01
(PID.TID 0000.0001) %MON dynstat_vvel_mean            =   5.5549661967398E-03
(PID.TID 0000.0001) %MON dynstat_vvel_sd              =   2.2801506168399E-02
(PID.TID 0000.0001) %MON dynstat_vvel_del2            =   4.2465812783853E-03
(PID.TID 0000.0001) %MON dynstat_wvel_max             =   2.0162701323873E-03
(PID.TID 0000.0001) %MON dynstat_wvel_min             =  -8.2336230075054E-04
(PID.TID 0000.0001) %MON dynstat_wvel_mean            =   1.0267868796630E-20
(PID.TID 0000.0001) %MON dynstat_wvel_sd              =   6.3621933309285E-05
(PID.TID 0000.0001) %MON dynstat_wvel_del2            =   1.0482466245049E-05
(PID.TID 0000.0001) %MON dynstat_theta_max            =   2.9249651237976E+01
(PID.TID 0000.0001) %MON dynstat_theta_min            =  -2.7181909527830E+00
(PID.TID 0000.0001) %MON dynstat_theta_mean           =   3.4024393831122E+00
(PID.TID 0000.0001) %MON dynstat_theta_sd             =   4.1448211709454E+00
(PID.TID 0000.0001) %MON dynstat_theta_del2           =   1.5038034893495E-01
(PID.TID 0000.0001) %MON dynstat_salt_max             =   3.7417632324144E+01
(PID.TID 0000.0001) %MON dynstat_salt_min             =   3.1071119785070E+01
(PID.TID 0000.0001) %MON dynstat_salt_mean            =   3.4716014211143E+01
(PID.TID 0000.0001) %MON dynstat_salt_sd              =   2.8106700332855E-01
(PID.TID 0000.0001) %MON dynstat_salt_del2            =   2.5780362029621E-02
(PID.TID 0000.0001) %MON advcfl_uvel_max              =   9.6541012787473E-02
(PID.TID 0000.0001) %MON advcfl_vvel_max              =   1.4489801636312E-01
(PID.TID 0000.0001) %MON advcfl_wvel_max              =   5.9251956027550E-01
(PID.TID 0000.0001) %MON advcfl_W_hf_max              =   7.5648578714148E-01
(PID.TID 0000.0001) %MON pe_b_mean                    =   3.0020658271479E-04
(PID.TID 0000.0001) %MON ke_max                       =   1.5670155181471E-01
(PID.TID 0000.0001) %MON ke_mean                      =   5.0032581850007E-04
(PID.TID 0000.0001) %MON ke_vol                       =   1.4474490094807E+18
(PID.TID 0000.0001) %MON vort_r_min                   =  -1.2638474355298E-06
(PID.TID 0000.0001) %MON vort_r_max                   =   2.1151281230179E-06
(PID.TID 0000.0001) %MON vort_a_mean                  =  -1.8569334076122E-05
(PID.TID 0000.0001) %MON vort_a_sd                    =   7.3617342767789E-05
(PID.TID 0000.0001) %MON vort_p_mean                  =  -2.1757776080170E-05
(PID.TID 0000.0001) %MON vort_p_sd                    =   9.9827197267626E-05
(PID.TID 0000.0001) %MON surfExpan_theta_mean         =   5.7563547363160E-06
(PID.TID 0000.0001) %MON surfExpan_salt_mean          =   1.9414321986074E-07
(PID.TID 0000.0001) // =======================================================
(PID.TID 0000.0001) // End MONITOR dynamic field statistics
(PID.TID 0000.0001) // =======================================================
 cg2d: Sum(rhs),rhsMax =   4.10338429901458E-13  1.29779381453878E+01
(PID.TID 0000.0001)                    cg2d_init_res =    5.60034718416902E-01
(PID.TID 0000.0001)                       cg2d_iters =    39
(PID.TID 0000.0001)                         cg2d_res =    5.35747124726535E-14
(PID.TID 0000.0001) // =======================================================
(PID.TID 0000.0001) // Begin MONITOR dynamic field statistics
(PID.TID 0000.0001) // =======================================================
(PID.TID 0000.0001) %MON time_tsnumber                =                    18
(PID.TID 0000.0001) %MON time_secondsf                =   1.9440000000000E+06
(PID.TID 0000.0001) %MON dynstat_eta_max              =   1.6765854890139E+00
(PID.TID 0000.0001) %MON dynstat_eta_min              =  -1.5426346694826E+00
(PID.TID 0000.0001) %MON dynstat_eta_mean             =  -1.0193402251459E-15
(PID.TID 0000.0001) %MON dynstat_eta_sd               =   5.2551167202833E-01
(PID.TID 0000.0001) %MON dynstat_eta_del2             =   2.3994143755085E-02
(PID.TID 0000.0001) %MON dynstat_uvel_max             =   2.6200466305794E-01
(PID.TID 0000.0001) %MON dynstat_uvel_min             =  -3.9668284964918E-01
(PID.TID 0000.0001) %MON dynstat_uvel_mean            =  -1.8508150336981E-03
(PID.TID 0000.0001) %MON dynstat_uvel_sd              =   2.2019077343821E-02
(PID.TID 0000.0001) %MON dynstat_uvel_del2            =   3.7206586360564E-03
(PID.TID 0000.0001) %MON dynstat_vvel_max             =   5.6877463072932E-01
(PID.TID 0000.0001) %MON dynstat_vvel_min             =  -3.6638776261339E-01
(PID.TID 0000.0001) %MON dynstat_vvel_mean            =   5.4682983454613E-03
(PID.TID 0000.0001) %MON dynstat_vvel_sd              =   2.2419891402629E-02
(PID.TID 0000.0001) %MON dynstat_vvel_del2            =   4.1101791781477E-03
(PID.TID 0000.0001) %MON dynstat_wvel_max             =   1.7225888267361E-03
(PID.TID 0000.0001) %MON dynstat_wvel_min             =  -8.0404663725826E-04
(PID.TID 0000.0001) %MON dynstat_wvel_mean            =   1.4668383995185E-21
(PID.TID 0000.0001) %MON dynstat_wvel_sd              =   5.9682106403221E-05
(PID.TID 0000.0001) %MON dynstat_wvel_del2            =   9.7727109320818E-06
(PID.TID 0000.0001) %MON dynstat_theta_max            =   2.9264164963010E+01
(PID.TID 0000.0001) %MON dynstat_theta_min            =  -2.7346710777300E+00
(PID.TID 0000.0001) %MON dynstat_theta_mean           =   3.4022699000084E+00
(PID.TID 0000.0001) %MON dynstat_theta_sd             =   4.1465628891431E+00
(PID.TID 0000.0001) %MON dynstat_theta_del2           =   1.5051103222108E-01
(PID.TID 0000.0001) %MON dynstat_salt_max             =   3.7415116282729E+01
(PID.TID 0000.0001) %MON dynstat_salt_min             =   3.1045059092108E+01
(PID.TID 0000.0001) %MON dynstat_salt_mean            =   3.4715987060878E+01
(PID.TID 0000.0001) %MON dynstat_salt_sd              =   2.8093844924851E-01
(PID.TID 0000.0001) %MON dynstat_salt_del2            =   2.5789644584005E-02
(PID.TID 0000.0001) %MON advcfl_uvel_max              =   9.6867042366963E-02
(PID.TID 0000.0001) %MON advcfl_vvel_max              =   1.3812973587792E-01
(PID.TID 0000.0001) %MON advcfl_wvel_max              =   6.0449151042043E-01
(PID.TID 0000.0001) %MON advcfl_W_hf_max              =   7.1716559541194E-01
(PID.TID 0000.0001) %MON pe_b_mean                    =   3.1214776211455E-04
(PID.TID 0000.0001) %MON ke_max                       =   1.3703698333921E-01
(PID.TID 0000.0001) %MON ke_mean                      =   4.6409047243494E-04
(PID.TID 0000.0001) %MON ke_vol                       =   1.4474490094807E+18
(PID.TID 0000.0001) %MON vort_r_min                   =  -1.1681616646698E-06
(PID.TID 0000.0001) %MON vort_r_max                   =   1.9998223739831E-06
(PID.TID 0000.0001) %MON vort_a_mean                  =  -1.8569334076122E-05
(PID.TID 0000.0001) %MON vort_a_sd                    =   7.3617434487583E-05
(PID.TID 0000.0001) %MON vort_p_mean                  =  -2.1757776080170E-05
(PID.TID 0000.0001) %MON vort_p_sd                    =   9.9827245775970E-05
(PID.TID 0000.0001) %MON surfExpan_theta_mean         =   1.2953755724300E-05
(PID.TID 0000.0001) %MON surfExpan_salt_mean          =   1.2462526080236E-06
(PID.TID 0000.0001) // =======================================================
(PID.TID 0000.0001) // End MONITOR dynamic field statistics
(PID.TID 0000.0001) // =======================================================
 cg2d: Sum(rhs),rhsMax =   3.23296944770846E-13  1.46602976692408E+01
(PID.TID 0000.0001)                    cg2d_init_res =    4.68562521238085E-01
(PID.TID 0000.0001)                       cg2d_iters =    38
(PID.TID 0000.0001)                         cg2d_res =    9.10327268823109E-14
(PID.TID 0000.0001) // =======================================================
(PID.TID 0000.0001) // Begin MONITOR dynamic field statistics
(PID.TID 0000.0001) // =======================================================
(PID.TID 0000.0001) %MON time_tsnumber                =                    19
(PID.TID 0000.0001) %MON time_secondsf                =   2.0520000000000E+06
(PID.TID 0000.0001) %MON dynstat_eta_max              =   1.6855572819345E+00
(PID.TID 0000.0001) %MON dynstat_eta_min              =  -1.6333003458273E+00
(PID.TID 0000.0001) %MON dynstat_eta_mean             =  -6.5957308685911E-16
(PID.TID 0000.0001) %MON dynstat_eta_sd               =   5.3644448858757E-01
(PID.TID 0000.0001) %MON dynstat_eta_del2             =   2.4745937756521E-02
(PID.TID 0000.0001) %MON dynstat_uvel_max             =   2.4760877054857E-01
(PID.TID 0000.0001) %MON dynstat_uvel_min             =  -4.0906567457253E-01
(PID.TID 0000.0001) %MON dynstat_uvel_mean            =  -1.8069080283643E-03
(PID.TID 0000.0001) %MON dynstat_uvel_sd              =   2.1021820910401E-02
(PID.TID 0000.0001) %MON dynstat_uvel_del2            =   3.5690875339522E-03
(PID.TID 0000.0001) %MON dynstat_vvel_max             =   5.3988163303649E-01
(PID.TID 0000.0001) %MON dynstat_vvel_min             =  -3.2154599855506E-01
(PID.TID 0000.0001) %MON dynstat_vvel_mean            =   5.1425111829503E-03
(PID.TID 0000.0001) %MON dynstat_vvel_sd              =   2.1855109063081E-02
(PID.TID 0000.0001) %MON dynstat_vvel_del2            =   3.9433268193819E-03
(PID.TID 0000.0001) %MON dynstat_wvel_max             =   1.4258304143697E-03
(PID.TID 0000.0001) %MON dynstat_wvel_min             =  -7.5155124083945E-04
(PID.TID 0000.0001) %MON dynstat_wvel_mean            =   3.8504507987362E-21
(PID.TID 0000.0001) %MON dynstat_wvel_sd              =   5.6061588000167E-05
(PID.TID 0000.0001) %MON dynstat_wvel_del2            =   9.2362747227217E-06
(PID.TID 0000.0001) %MON dynstat_theta_max            =   2.9272178837318E+01
(PID.TID 0000.0001) %MON dynstat_theta_min            =  -2.7964640504096E+00
(PID.TID 0000.0001) %MON dynstat_theta_mean           =   3.4019289176017E+00
(PID.TID 0000.0001) %MON dynstat_theta_sd             =   4.1477798162724E+00
(PID.TID 0000.0001) %MON dynstat_theta_del2           =   1.5049586467121E-01
(PID.TID 0000.0001) %MON dynstat_salt_max             =   3.7412941297802E+01
(PID.TID 0000.0001) %MON dynstat_salt_min             =   3.1020609837130E+01
(PID.TID 0000.0001) %MON dynstat_salt_mean            =   3.4715938168893E+01
(PID.TID 0000.0001) %MON dynstat_salt_sd              =   2.8079310429073E-01
(PID.TID 0000.0001) %MON dynstat_salt_del2            =   2.5780694659556E-02
(PID.TID 0000.0001) %MON advcfl_uvel_max              =   9.9890837389947E-02
(PID.TID 0000.0001) %MON advcfl_vvel_max              =   1.3111292829824E-01
(PID.TID 0000.0001) %MON advcfl_wvel_max              =   6.2706364226761E-01
(PID.TID 0000.0001) %MON advcfl_W_hf_max              =   7.5173866907856E-01
(PID.TID 0000.0001) %MON pe_b_mean                    =   3.2527079274644E-04
(PID.TID 0000.0001) %MON ke_max                       =   1.1832647603066E-01
(PID.TID 0000.0001) %MON ke_mean                      =   4.3150043023347E-04
(PID.TID 0000.0001) %MON ke_vol                       =   1.4474490094807E+18
(PID.TID 0000.0001) %MON vort_r_min                   =  -1.1523281421374E-06
(PID.TID 0000.0001) %MON vort_r_max                   =   1.8760081119204E-06
(PID.TID 0000.0001) %MON vort_a_mean                  =  -1.8569334076122E-05
(PID.TID 0000.0001) %MON vort_a_sd                    =   7.3617470955765E-05
(PID.TID 0000.0001) %MON vort_p_mean                  =  -2.1757776080170E-05
(PID.TID 0000.0001) %MON vort_p_sd                    =   9.9827261372071E-05
(PID.TID 0000.0001) %MON surfExpan_theta_mean         =   1.8802574317776E-05
(PID.TID 0000.0001) %MON surfExpan_salt_mean          =   1.9980737045862E-06
(PID.TID 0000.0001) // =======================================================
(PID.TID 0000.0001) // End MONITOR dynamic field statistics
(PID.TID 0000.0001) // =======================================================
 cg2d: Sum(rhs),rhsMax =   3.12638803734444E-13  1.54238475621584E+01
(PID.TID 0000.0001)                    cg2d_init_res =    4.12321737493127E-01
(PID.TID 0000.0001)                       cg2d_iters =    38
(PID.TID 0000.0001)                         cg2d_res =    7.99121997922408E-14
(PID.TID 0000.0001) // =======================================================
(PID.TID 0000.0001) // Begin MONITOR dynamic field statistics
(PID.TID 0000.0001) // =======================================================
(PID.TID 0000.0001) %MON time_tsnumber                =                    20
(PID.TID 0000.0001) %MON time_secondsf                =   2.1600000000000E+06
(PID.TID 0000.0001) %MON dynstat_eta_max              =   1.6590096641777E+00
(PID.TID 0000.0001) %MON dynstat_eta_min              =  -1.7583968458461E+00
(PID.TID 0000.0001) %MON dynstat_eta_mean             =  -8.0198091243097E-16
(PID.TID 0000.0001) %MON dynstat_eta_sd               =   5.4696154372622E-01
(PID.TID 0000.0001) %MON dynstat_eta_del2             =   2.5223960866724E-02
(PID.TID 0000.0001) %MON dynstat_uvel_max             =   2.3181503883470E-01
(PID.TID 0000.0001) %MON dynstat_uvel_min             =  -4.1857460441160E-01
(PID.TID 0000.0001) %MON dynstat_uvel_mean            =  -1.9627914222625E-03
(PID.TID 0000.0001) %MON dynstat_uvel_sd              =   2.0404887770202E-02
(PID.TID 0000.0001) %MON dynstat_uvel_del2            =   3.4584475317740E-03
(PID.TID 0000.0001) %MON dynstat_vvel_max             =   5.1071199849206E-01
(PID.TID 0000.0001) %MON dynstat_vvel_min             =  -3.2437920806146E-01
(PID.TID 0000.0001) %MON dynstat_vvel_mean            =   4.5834153865947E-03
(PID.TID 0000.0001) %MON dynstat_vvel_sd              =   2.1179456635292E-02
(PID.TID 0000.0001) %MON dynstat_vvel_del2            =   3.8303705951013E-03
(PID.TID 0000.0001) %MON dynstat_wvel_max             =   1.1315013840937E-03
(PID.TID 0000.0001) %MON dynstat_wvel_min             =  -6.7078631190332E-04
(PID.TID 0000.0001) %MON dynstat_wvel_mean            =  -1.8335479993982E-22
(PID.TID 0000.0001) %MON dynstat_wvel_sd              =   5.3158550528425E-05
(PID.TID 0000.0001) %MON dynstat_wvel_del2            =   9.0808941015532E-06
(PID.TID 0000.0001) %MON dynstat_theta_max            =   2.9274100626770E+01
(PID.TID 0000.0001) %MON dynstat_theta_min            =  -2.8986527232889E+00
(PID.TID 0000.0001) %MON dynstat_theta_mean           =   3.4014654839219E+00
(PID.TID 0000.0001) %MON dynstat_theta_sd             =   4.1483843304626E+00
(PID.TID 0000.0001) %MON dynstat_theta_del2           =   1.5028221914028E-01
(PID.TID 0000.0001) %MON dynstat_salt_max             =   3.7411330065972E+01
(PID.TID 0000.0001) %MON dynstat_salt_min             =   3.1002216642917E+01
(PID.TID 0000.0001) %MON dynstat_salt_mean            =   3.4715876193266E+01
(PID.TID 0000.0001) %MON dynstat_salt_sd              =   2.8064209193947E-01
(PID.TID 0000.0001) %MON dynstat_salt_del2            =   2.5749972480223E-02
(PID.TID 0000.0001) %MON advcfl_uvel_max              =   1.0221284831228E-01
(PID.TID 0000.0001) %MON advcfl_vvel_max              =   1.2402893808913E-01
(PID.TID 0000.0001) %MON advcfl_wvel_max              =   6.2949578734554E-01
(PID.TID 0000.0001) %MON advcfl_W_hf_max              =   7.6098815602687E-01
(PID.TID 0000.0001) %MON pe_b_mean                    =   3.3814975566908E-04
(PID.TID 0000.0001) %MON ke_max                       =   1.0102796812640E-01
(PID.TID 0000.0001) %MON ke_mean                      =   4.0448238335577E-04
(PID.TID 0000.0001) %MON ke_vol                       =   1.4474490094807E+18
(PID.TID 0000.0001) %MON vort_r_min                   =  -1.1857014946531E-06
(PID.TID 0000.0001) %MON vort_r_max                   =   1.7475057829617E-06
(PID.TID 0000.0001) %MON vort_a_mean                  =  -1.8569334076122E-05
(PID.TID 0000.0001) %MON vort_a_sd                    =   7.3617462372499E-05
(PID.TID 0000.0001) %MON vort_p_mean                  =  -2.1757776080170E-05
(PID.TID 0000.0001) %MON vort_p_sd                    =   9.9827265603327E-05
(PID.TID 0000.0001) %MON surfExpan_theta_mean         =   2.2657502214073E-05
(PID.TID 0000.0001) %MON surfExpan_salt_mean          =   2.4303218249724E-06
(PID.TID 0000.0001) // =======================================================
(PID.TID 0000.0001) // End MONITOR dynamic field statistics
(PID.TID 0000.0001) // =======================================================
 cg2d: Sum(rhs),rhsMax =   2.59348098552437E-13  1.52671216373003E+01
(PID.TID 0000.0001)                    cg2d_init_res =    3.98605748375081E-01
(PID.TID 0000.0001)                       cg2d_iters =    38
(PID.TID 0000.0001)                         cg2d_res =    8.08790909917443E-14
(PID.TID 0000.0001) // =======================================================
(PID.TID 0000.0001) // Begin MONITOR dynamic field statistics
(PID.TID 0000.0001) // =======================================================
(PID.TID 0000.0001) %MON time_tsnumber                =                    21
(PID.TID 0000.0001) %MON time_secondsf                =   2.2680000000000E+06
(PID.TID 0000.0001) %MON dynstat_eta_max              =   1.5991022831393E+00
(PID.TID 0000.0001) %MON dynstat_eta_min              =  -1.8705393413115E+00
(PID.TID 0000.0001) %MON dynstat_eta_mean             =  -6.9704883043065E-16
(PID.TID 0000.0001) %MON dynstat_eta_sd               =   5.5627467608177E-01
(PID.TID 0000.0001) %MON dynstat_eta_del2             =   2.5486383253500E-02
(PID.TID 0000.0001) %MON dynstat_uvel_max             =   2.3109735203364E-01
(PID.TID 0000.0001) %MON dynstat_uvel_min             =  -4.2547473939247E-01
(PID.TID 0000.0001) %MON dynstat_uvel_mean            =  -2.2524016804086E-03
(PID.TID 0000.0001) %MON dynstat_uvel_sd              =   2.0134427048941E-02
(PID.TID 0000.0001) %MON dynstat_uvel_del2            =   3.3852470980497E-03
(PID.TID 0000.0001) %MON dynstat_vvel_max             =   4.8182104720374E-01
(PID.TID 0000.0001) %MON dynstat_vvel_min             =  -3.8256658401905E-01
(PID.TID 0000.0001) %MON dynstat_vvel_mean            =   3.8226178467614E-03
(PID.TID 0000.0001) %MON dynstat_vvel_sd              =   2.0508012660501E-02
(PID.TID 0000.0001) %MON dynstat_vvel_del2            =   3.8088630073777E-03
(PID.TID 0000.0001) %MON dynstat_wvel_max             =   1.1910210533998E-03
(PID.TID 0000.0001) %MON dynstat_wvel_min             =  -5.6819328412006E-04
(PID.TID 0000.0001) %MON dynstat_wvel_mean            =   3.3003863989167E-21
(PID.TID 0000.0001) %MON dynstat_wvel_sd              =   5.1203521399012E-05
(PID.TID 0000.0001) %MON dynstat_wvel_del2            =   9.2854574500975E-06
(PID.TID 0000.0001) %MON dynstat_theta_max            =   2.9285644484792E+01
(PID.TID 0000.0001) %MON dynstat_theta_min            =  -3.0303800789684E+00
(PID.TID 0000.0001) %MON dynstat_theta_mean           =   3.4009378986618E+00
(PID.TID 0000.0001) %MON dynstat_theta_sd             =   4.1483961267657E+00
(PID.TID 0000.0001) %MON dynstat_theta_del2           =   1.4997711473657E-01
(PID.TID 0000.0001) %MON dynstat_salt_max             =   3.7410368549018E+01
(PID.TID 0000.0001) %MON dynstat_salt_min             =   3.0992938400377E+01
(PID.TID 0000.0001) %MON dynstat_salt_mean            =   3.4715809216739E+01
(PID.TID 0000.0001) %MON dynstat_salt_sd              =   2.8049843822907E-01
(PID.TID 0000.0001) %MON dynstat_salt_del2            =   2.5700354525391E-02
(PID.TID 0000.0001) %MON advcfl_uvel_max              =   1.0389781066475E-01
(PID.TID 0000.0001) %MON advcfl_vvel_max              =   1.1701262748892E-01
(PID.TID 0000.0001) %MON advcfl_wvel_max              =   6.1435621336142E-01
(PID.TID 0000.0001) %MON advcfl_W_hf_max              =   7.4784881693050E-01
(PID.TID 0000.0001) %MON pe_b_mean                    =   3.4976316622065E-04
(PID.TID 0000.0001) %MON ke_max                       =   8.5450303860793E-02
(PID.TID 0000.0001) %MON ke_mean                      =   3.8450121713394E-04
(PID.TID 0000.0001) %MON ke_vol                       =   1.4474490094807E+18
(PID.TID 0000.0001) %MON vort_r_min                   =  -1.2142949590919E-06
(PID.TID 0000.0001) %MON vort_r_max                   =   1.6177706446855E-06
(PID.TID 0000.0001) %MON vort_a_mean                  =  -1.8569334076122E-05
(PID.TID 0000.0001) %MON vort_a_sd                    =   7.3617421213387E-05
(PID.TID 0000.0001) %MON vort_p_mean                  =  -2.1757776080170E-05
(PID.TID 0000.0001) %MON vort_p_sd                    =   9.9827277198782E-05
(PID.TID 0000.0001) %MON surfExpan_theta_mean         =   2.4312280250966E-05
(PID.TID 0000.0001) %MON surfExpan_salt_mean          =   2.5706185256244E-06
(PID.TID 0000.0001) // =======================================================
(PID.TID 0000.0001) // End MONITOR dynamic field statistics
(PID.TID 0000.0001) // =======================================================
 cg2d: Sum(rhs),rhsMax =   2.55795384873636E-13  1.44569157299368E+01
(PID.TID 0000.0001)                    cg2d_init_res =    4.15053251400334E-01
(PID.TID 0000.0001)                       cg2d_iters =    38
(PID.TID 0000.0001)                         cg2d_res =    8.60140994643116E-14
(PID.TID 0000.0001) // =======================================================
(PID.TID 0000.0001) // Begin MONITOR dynamic field statistics
(PID.TID 0000.0001) // =======================================================
(PID.TID 0000.0001) %MON time_tsnumber                =                    22
(PID.TID 0000.0001) %MON time_secondsf                =   2.3760000000000E+06
(PID.TID 0000.0001) %MON dynstat_eta_max              =   1.5122825662502E+00
(PID.TID 0000.0001) %MON dynstat_eta_min              =  -1.9494202314919E+00
(PID.TID 0000.0001) %MON dynstat_eta_mean             =  -6.1460219457326E-16
(PID.TID 0000.0001) %MON dynstat_eta_sd               =   5.6397544015862E-01
(PID.TID 0000.0001) %MON dynstat_eta_del2             =   2.5595534822838E-02
(PID.TID 0000.0001) %MON dynstat_uvel_max             =   2.3512023011541E-01
(PID.TID 0000.0001) %MON dynstat_uvel_min             =  -4.3012113932223E-01
(PID.TID 0000.0001) %MON dynstat_uvel_mean            =  -2.6104203985692E-03
(PID.TID 0000.0001) %MON dynstat_uvel_sd              =   2.0114284222469E-02
(PID.TID 0000.0001) %MON dynstat_uvel_del2            =   3.3439724062237E-03
(PID.TID 0000.0001) %MON dynstat_vvel_max             =   4.5360941357023E-01
(PID.TID 0000.0001) %MON dynstat_vvel_min             =  -4.3157751770399E-01
(PID.TID 0000.0001) %MON dynstat_vvel_mean            =   2.9121074589505E-03
(PID.TID 0000.0001) %MON dynstat_vvel_sd              =   1.9972004743851E-02
(PID.TID 0000.0001) %MON dynstat_vvel_del2            =   3.8536447645923E-03
(PID.TID 0000.0001) %MON dynstat_wvel_max             =   1.2116603686738E-03
(PID.TID 0000.0001) %MON dynstat_wvel_min             =  -5.6353918834251E-04
(PID.TID 0000.0001) %MON dynstat_wvel_mean            =   2.6586445991274E-21
(PID.TID 0000.0001) %MON dynstat_wvel_sd              =   5.0191172249502E-05
(PID.TID 0000.0001) %MON dynstat_wvel_del2            =   9.6809822732885E-06
(PID.TID 0000.0001) %MON dynstat_theta_max            =   2.9291282395360E+01
(PID.TID 0000.0001) %MON dynstat_theta_min            =  -3.1768115735334E+00
(PID.TID 0000.0001) %MON dynstat_theta_mean           =   3.4004029099015E+00
(PID.TID 0000.0001) %MON dynstat_theta_sd             =   4.1479113894579E+00
(PID.TID 0000.0001) %MON dynstat_theta_del2           =   1.4951800788593E-01
(PID.TID 0000.0001) %MON dynstat_salt_max             =   3.7409991631456E+01
(PID.TID 0000.0001) %MON dynstat_salt_min             =   3.0994077218327E+01
(PID.TID 0000.0001) %MON dynstat_salt_mean            =   3.4715743845814E+01
(PID.TID 0000.0001) %MON dynstat_salt_sd              =   2.8037464065772E-01
(PID.TID 0000.0001) %MON dynstat_salt_del2            =   2.5634058233460E-02
(PID.TID 0000.0001) %MON advcfl_uvel_max              =   1.0503242744802E-01
(PID.TID 0000.0001) %MON advcfl_vvel_max              =   1.1016129254543E-01
(PID.TID 0000.0001) %MON advcfl_wvel_max              =   5.8339836779628E-01
(PID.TID 0000.0001) %MON advcfl_W_hf_max              =   7.1466167625418E-01
(PID.TID 0000.0001) %MON pe_b_mean                    =   3.5951405737853E-04
(PID.TID 0000.0001) %MON ke_max                       =   7.1729918947696E-02
(PID.TID 0000.0001) %MON ke_mean                      =   3.7237075353450E-04
(PID.TID 0000.0001) %MON ke_vol                       =   1.4474490094807E+18
(PID.TID 0000.0001) %MON vort_r_min                   =  -1.2374122391124E-06
(PID.TID 0000.0001) %MON vort_r_max                   =   1.4894573039998E-06
(PID.TID 0000.0001) %MON vort_a_mean                  =  -1.8569334076122E-05
(PID.TID 0000.0001) %MON vort_a_sd                    =   7.3617360525507E-05
(PID.TID 0000.0001) %MON vort_p_mean                  =  -2.1757776080170E-05
(PID.TID 0000.0001) %MON vort_p_sd                    =   9.9827310320827E-05
(PID.TID 0000.0001) %MON surfExpan_theta_mean         =   2.3930890361062E-05
(PID.TID 0000.0001) %MON surfExpan_salt_mean          =   2.4804188312921E-06
(PID.TID 0000.0001) // =======================================================
(PID.TID 0000.0001) // End MONITOR dynamic field statistics
(PID.TID 0000.0001) // =======================================================
 cg2d: Sum(rhs),rhsMax =   2.02504679691629E-13  1.29955108780383E+01
(PID.TID 0000.0001)                    cg2d_init_res =    4.64772293010346E-01
(PID.TID 0000.0001)                       cg2d_iters =    38
(PID.TID 0000.0001)                         cg2d_res =    9.81067564332909E-14
(PID.TID 0000.0001) // =======================================================
(PID.TID 0000.0001) // Begin MONITOR dynamic field statistics
(PID.TID 0000.0001) // =======================================================
(PID.TID 0000.0001) %MON time_tsnumber                =                    23
(PID.TID 0000.0001) %MON time_secondsf                =   2.4840000000000E+06
(PID.TID 0000.0001) %MON dynstat_eta_max              =   1.4061020016633E+00
(PID.TID 0000.0001) %MON dynstat_eta_min              =  -2.0290570877470E+00
(PID.TID 0000.0001) %MON dynstat_eta_mean             =  -7.1953427657358E-16
(PID.TID 0000.0001) %MON dynstat_eta_sd               =   5.6989678540059E-01
(PID.TID 0000.0001) %MON dynstat_eta_del2             =   2.5659741832431E-02
(PID.TID 0000.0001) %MON dynstat_uvel_max             =   2.3889742894041E-01
(PID.TID 0000.0001) %MON dynstat_uvel_min             =  -4.3309861812135E-01
(PID.TID 0000.0001) %MON dynstat_uvel_mean            =  -2.9782348995159E-03
(PID.TID 0000.0001) %MON dynstat_uvel_sd              =   2.0238134022408E-02
(PID.TID 0000.0001) %MON dynstat_uvel_del2            =   3.3297406561541E-03
(PID.TID 0000.0001) %MON dynstat_vvel_max             =   4.2633935954715E-01
(PID.TID 0000.0001) %MON dynstat_vvel_min             =  -4.7060533507806E-01
(PID.TID 0000.0001) %MON dynstat_vvel_mean            =   1.9170844694825E-03
(PID.TID 0000.0001) %MON dynstat_vvel_sd              =   1.9683965713395E-02
(PID.TID 0000.0001) %MON dynstat_vvel_del2            =   3.9300335227417E-03
(PID.TID 0000.0001) %MON dynstat_wvel_max             =   1.2083914026488E-03
(PID.TID 0000.0001) %MON dynstat_wvel_min             =  -5.6694792851558E-04
(PID.TID 0000.0001) %MON dynstat_wvel_mean            =   2.8419993990672E-21
(PID.TID 0000.0001) %MON dynstat_wvel_sd              =   4.9898289528434E-05
(PID.TID 0000.0001) %MON dynstat_wvel_del2            =   1.0025596262304E-05
(PID.TID 0000.0001) %MON dynstat_theta_max            =   2.9303073795208E+01
(PID.TID 0000.0001) %MON dynstat_theta_min            =  -3.3217497455760E+00
(PID.TID 0000.0001) %MON dynstat_theta_mean           =   3.3999076580018E+00
(PID.TID 0000.0001) %MON dynstat_theta_sd             =   4.1470663312556E+00
(PID.TID 0000.0001) %MON dynstat_theta_del2           =   1.4898321578618E-01
(PID.TID 0000.0001) %MON dynstat_salt_max             =   3.7410020570081E+01
(PID.TID 0000.0001) %MON dynstat_salt_min             =   3.1005188506043E+01
(PID.TID 0000.0001) %MON dynstat_salt_mean            =   3.4715684643418E+01
(PID.TID 0000.0001) %MON dynstat_salt_sd              =   2.8028027383368E-01
(PID.TID 0000.0001) %MON dynstat_salt_del2            =   2.5564945667011E-02
(PID.TID 0000.0001) %MON advcfl_uvel_max              =   1.0575950593210E-01
(PID.TID 0000.0001) %MON advcfl_vvel_max              =   1.1428883625439E-01
(PID.TID 0000.0001) %MON advcfl_wvel_max              =   5.4126779151296E-01
(PID.TID 0000.0001) %MON advcfl_W_hf_max              =   6.6498614385878E-01
(PID.TID 0000.0001) %MON pe_b_mean                    =   3.6710297770251E-04
(PID.TID 0000.0001) %MON ke_max                       =   6.3529724676731E-02
(PID.TID 0000.0001) %MON ke_mean                      =   3.6828167893522E-04
(PID.TID 0000.0001) %MON ke_vol                       =   1.4474490094807E+18
(PID.TID 0000.0001) %MON vort_r_min                   =  -1.2542049856262E-06
(PID.TID 0000.0001) %MON vort_r_max                   =   1.3644601939889E-06
(PID.TID 0000.0001) %MON vort_a_mean                  =  -1.8569334076122E-05
(PID.TID 0000.0001) %MON vort_a_sd                    =   7.3617292504118E-05
(PID.TID 0000.0001) %MON vort_p_mean                  =  -2.1757776080170E-05
(PID.TID 0000.0001) %MON vort_p_sd                    =   9.9827373770211E-05
(PID.TID 0000.0001) %MON surfExpan_theta_mean         =   2.1944001530304E-05
(PID.TID 0000.0001) %MON surfExpan_salt_mean          =   2.2367765855740E-06
(PID.TID 0000.0001) // =======================================================
(PID.TID 0000.0001) // End MONITOR dynamic field statistics
(PID.TID 0000.0001) // =======================================================
 cg2d: Sum(rhs),rhsMax =   4.26325641456060E-13  1.09125688303256E+01
(PID.TID 0000.0001)                    cg2d_init_res =    5.58047197752766E-01
(PID.TID 0000.0001)                       cg2d_iters =    39
(PID.TID 0000.0001)                         cg2d_res =    5.12738245057969E-14
(PID.TID 0000.0001) // =======================================================
(PID.TID 0000.0001) // Begin MONITOR dynamic field statistics
(PID.TID 0000.0001) // =======================================================
(PID.TID 0000.0001) %MON time_tsnumber                =                    24
(PID.TID 0000.0001) %MON time_secondsf                =   2.5920000000000E+06
(PID.TID 0000.0001) %MON dynstat_eta_max              =   1.2880993646229E+00
(PID.TID 0000.0001) %MON dynstat_eta_min              =  -2.0803751968076E+00
(PID.TID 0000.0001) %MON dynstat_eta_mean             =  -8.1697120985958E-16
(PID.TID 0000.0001) %MON dynstat_eta_sd               =   5.7402010374252E-01
(PID.TID 0000.0001) %MON dynstat_eta_del2             =   2.5687834427040E-02
(PID.TID 0000.0001) %MON dynstat_uvel_max             =   2.4209789029880E-01
(PID.TID 0000.0001) %MON dynstat_uvel_min             =  -4.3486511438813E-01
(PID.TID 0000.0001) %MON dynstat_uvel_mean            =  -3.3077847824717E-03
(PID.TID 0000.0001) %MON dynstat_uvel_sd              =   2.0432670847578E-02
(PID.TID 0000.0001) %MON dynstat_uvel_del2            =   3.3404170551467E-03
(PID.TID 0000.0001) %MON dynstat_vvel_max             =   4.0014996354563E-01
(PID.TID 0000.0001) %MON dynstat_vvel_min             =  -4.9913659839099E-01
(PID.TID 0000.0001) %MON dynstat_vvel_mean            =   9.0763803285035E-04
(PID.TID 0000.0001) %MON dynstat_vvel_sd              =   1.9701167596538E-02
(PID.TID 0000.0001) %MON dynstat_vvel_del2            =   4.0087061982133E-03
(PID.TID 0000.0001) %MON dynstat_wvel_max             =   1.2053351277536E-03
(PID.TID 0000.0001) %MON dynstat_wvel_min             =  -5.9203944999457E-04
(PID.TID 0000.0001) %MON dynstat_wvel_mean            =  -2.1085801993079E-21
(PID.TID 0000.0001) %MON dynstat_wvel_sd              =   4.9996493436260E-05
(PID.TID 0000.0001) %MON dynstat_wvel_del2            =   1.0185568918309E-05
(PID.TID 0000.0001) %MON dynstat_theta_max            =   2.9481767517502E+01
(PID.TID 0000.0001) %MON dynstat_theta_min            =  -3.4507014459314E+00
(PID.TID 0000.0001) %MON dynstat_theta_mean           =   3.3994845008429E+00
(PID.TID 0000.0001) %MON dynstat_theta_sd             =   4.1460040927059E+00
(PID.TID 0000.0001) %MON dynstat_theta_del2           =   1.4836524344028E-01
(PID.TID 0000.0001) %MON dynstat_salt_max             =   3.7410230812537E+01
(PID.TID 0000.0001) %MON dynstat_salt_min             =   3.1024339771848E+01
(PID.TID 0000.0001) %MON dynstat_salt_mean            =   3.4715634007759E+01
(PID.TID 0000.0001) %MON dynstat_salt_sd              =   2.8022204589113E-01
(PID.TID 0000.0001) %MON dynstat_salt_del2            =   2.5484476448228E-02
(PID.TID 0000.0001) %MON advcfl_uvel_max              =   1.0619087136387E-01
(PID.TID 0000.0001) %MON advcfl_vvel_max              =   1.2121779484845E-01
(PID.TID 0000.0001) %MON advcfl_wvel_max              =   4.9030572567275E-01
(PID.TID 0000.0001) %MON advcfl_W_hf_max              =   6.0326383969677E-01
(PID.TID 0000.0001) %MON pe_b_mean                    =   3.7243432323503E-04
(PID.TID 0000.0001) %MON ke_max                       =   7.1234233425368E-02
(PID.TID 0000.0001) %MON ke_mean                      =   3.7187682446546E-04
(PID.TID 0000.0001) %MON ke_vol                       =   1.4474490094807E+18
(PID.TID 0000.0001) %MON vort_r_min                   =  -1.2640690715868E-06
(PID.TID 0000.0001) %MON vort_r_max                   =   1.3347364192786E-06
(PID.TID 0000.0001) %MON vort_a_mean                  =  -1.8569334076122E-05
(PID.TID 0000.0001) %MON vort_a_sd                    =   7.3617227492613E-05
(PID.TID 0000.0001) %MON vort_p_mean                  =  -2.1757776080170E-05
(PID.TID 0000.0001) %MON vort_p_sd                    =   9.9827470832827E-05
(PID.TID 0000.0001) %MON surfExpan_theta_mean         =   1.8913288855032E-05
(PID.TID 0000.0001) %MON surfExpan_salt_mean          =   1.9205645322610E-06
(PID.TID 0000.0001) // =======================================================
(PID.TID 0000.0001) // End MONITOR dynamic field statistics
(PID.TID 0000.0001) // =======================================================
 cg2d: Sum(rhs),rhsMax =   3.80140363631654E-13  8.53982590734813E+00
(PID.TID 0000.0001)                    cg2d_init_res =    6.99279095335668E-01
(PID.TID 0000.0001)                       cg2d_iters =    39
(PID.TID 0000.0001)                         cg2d_res =    4.89562011673334E-14
(PID.TID 0000.0001) // =======================================================
(PID.TID 0000.0001) // Begin MONITOR dynamic field statistics
(PID.TID 0000.0001) // =======================================================
(PID.TID 0000.0001) %MON time_tsnumber                =                    25
(PID.TID 0000.0001) %MON time_secondsf                =   2.7000000000000E+06
(PID.TID 0000.0001) %MON dynstat_eta_max              =   1.1662488047390E+00
(PID.TID 0000.0001) %MON dynstat_eta_min              =  -2.0995908673860E+00
(PID.TID 0000.0001) %MON dynstat_eta_mean             =  -5.3965070743018E-16
(PID.TID 0000.0001) %MON dynstat_eta_sd               =   5.7644293492285E-01
(PID.TID 0000.0001) %MON dynstat_eta_del2             =   2.5656654156653E-02
(PID.TID 0000.0001) %MON dynstat_uvel_max             =   2.4446717309182E-01
(PID.TID 0000.0001) %MON dynstat_uvel_min             =  -4.3545181637573E-01
(PID.TID 0000.0001) %MON dynstat_uvel_mean            =  -3.5634428621769E-03
(PID.TID 0000.0001) %MON dynstat_uvel_sd              =   2.0675164283664E-02
(PID.TID 0000.0001) %MON dynstat_uvel_del2            =   3.3871228238193E-03
(PID.TID 0000.0001) %MON dynstat_vvel_max             =   3.7511606162919E-01
(PID.TID 0000.0001) %MON dynstat_vvel_min             =  -5.1688236873416E-01
(PID.TID 0000.0001) %MON dynstat_vvel_mean            =  -4.9205544556459E-05
(PID.TID 0000.0001) %MON dynstat_vvel_sd              =   2.0004140669574E-02
(PID.TID 0000.0001) %MON dynstat_vvel_del2            =   4.0697505405507E-03
(PID.TID 0000.0001) %MON dynstat_wvel_max             =   1.1763480095865E-03
(PID.TID 0000.0001) %MON dynstat_wvel_min             =  -6.3170646996773E-04
(PID.TID 0000.0001) %MON dynstat_wvel_mean            =   2.7503219990973E-22
(PID.TID 0000.0001) %MON dynstat_wvel_sd              =   5.0186386675679E-05
(PID.TID 0000.0001) %MON dynstat_wvel_del2            =   1.0157698769647E-05
(PID.TID 0000.0001) %MON dynstat_theta_max            =   3.0057105110052E+01
(PID.TID 0000.0001) %MON dynstat_theta_min            =  -3.5526776725557E+00
(PID.TID 0000.0001) %MON dynstat_theta_mean           =   3.3991501129898E+00
(PID.TID 0000.0001) %MON dynstat_theta_sd             =   4.1448561799785E+00
(PID.TID 0000.0001) %MON dynstat_theta_del2           =   1.4777874693823E-01
(PID.TID 0000.0001) %MON dynstat_salt_max             =   3.7410419246920E+01
(PID.TID 0000.0001) %MON dynstat_salt_min             =   3.1048504058094E+01
(PID.TID 0000.0001) %MON dynstat_salt_mean            =   3.4715592348944E+01
(PID.TID 0000.0001) %MON dynstat_salt_sd              =   2.8020339323074E-01
(PID.TID 0000.0001) %MON dynstat_salt_del2            =   2.5395921423961E-02
(PID.TID 0000.0001) %MON advcfl_uvel_max              =   1.0633413968600E-01
(PID.TID 0000.0001) %MON advcfl_vvel_max              =   1.2552744306063E-01
(PID.TID 0000.0001) %MON advcfl_wvel_max              =   5.1673299194771E-01
(PID.TID 0000.0001) %MON advcfl_W_hf_max              =   5.9161204567182E-01
(PID.TID 0000.0001) %MON pe_b_mean                    =   3.7558490907894E-04
(PID.TID 0000.0001) %MON ke_max                       =   7.6081193412888E-02
(PID.TID 0000.0001) %MON ke_mean                      =   3.8230830462213E-04
(PID.TID 0000.0001) %MON ke_vol                       =   1.4474490094807E+18
(PID.TID 0000.0001) %MON vort_r_min                   =  -1.2666740340514E-06
(PID.TID 0000.0001) %MON vort_r_max                   =   1.3520174630853E-06
(PID.TID 0000.0001) %MON vort_a_mean                  =  -1.8569334076122E-05
(PID.TID 0000.0001) %MON vort_a_sd                    =   7.3617173416505E-05
(PID.TID 0000.0001) %MON vort_p_mean                  =  -2.1757776080170E-05
(PID.TID 0000.0001) %MON vort_p_sd                    =   9.9827599729614E-05
(PID.TID 0000.0001) %MON surfExpan_theta_mean         =   1.5378538500228E-05
(PID.TID 0000.0001) %MON surfExpan_salt_mean          =   1.5983609121174E-06
(PID.TID 0000.0001) // =======================================================
(PID.TID 0000.0001) // End MONITOR dynamic field statistics
(PID.TID 0000.0001) // =======================================================
 cg2d: Sum(rhs),rhsMax =   2.34479102800833E-13  8.28140259113410E+00
(PID.TID 0000.0001)                    cg2d_init_res =    7.00866141795472E-01
(PID.TID 0000.0001)                       cg2d_iters =    39
(PID.TID 0000.0001)                         cg2d_res =    4.95741856603838E-14
(PID.TID 0000.0001) // =======================================================
(PID.TID 0000.0001) // Begin MONITOR dynamic field statistics
(PID.TID 0000.0001) // =======================================================
(PID.TID 0000.0001) %MON time_tsnumber                =                    26
(PID.TID 0000.0001) %MON time_secondsf                =   2.8080000000000E+06
(PID.TID 0000.0001) %MON dynstat_eta_max              =   1.0692997728291E+00
(PID.TID 0000.0001) %MON dynstat_eta_min              =  -2.0873199308388E+00
(PID.TID 0000.0001) %MON dynstat_eta_mean             =  -5.1716526128726E-16
(PID.TID 0000.0001) %MON dynstat_eta_sd               =   5.7737406502546E-01
(PID.TID 0000.0001) %MON dynstat_eta_del2             =   2.5514800091684E-02
(PID.TID 0000.0001) %MON dynstat_uvel_max             =   2.4587308984053E-01
(PID.TID 0000.0001) %MON dynstat_uvel_min             =  -4.3505946553029E-01
(PID.TID 0000.0001) %MON dynstat_uvel_mean            =  -3.7222722756252E-03
(PID.TID 0000.0001) %MON dynstat_uvel_sd              =   2.0986049501671E-02
(PID.TID 0000.0001) %MON dynstat_uvel_del2            =   3.4694571037584E-03
(PID.TID 0000.0001) %MON dynstat_vvel_max             =   3.5129799249615E-01
(PID.TID 0000.0001) %MON dynstat_vvel_min             =  -5.2376981403976E-01
(PID.TID 0000.0001) %MON dynstat_vvel_mean            =  -8.9591634331190E-04
(PID.TID 0000.0001) %MON dynstat_vvel_sd              =   2.0503346413030E-02
(PID.TID 0000.0001) %MON dynstat_vvel_del2            =   4.1069430162352E-03
(PID.TID 0000.0001) %MON dynstat_wvel_max             =   1.1341242378708E-03
(PID.TID 0000.0001) %MON dynstat_wvel_min             =  -6.5308432295235E-04
(PID.TID 0000.0001) %MON dynstat_wvel_mean            =   5.0422569983450E-22
(PID.TID 0000.0001) %MON dynstat_wvel_sd              =   5.0244023357439E-05
(PID.TID 0000.0001) %MON dynstat_wvel_del2            =   9.9641318524833E-06
(PID.TID 0000.0001) %MON dynstat_theta_max            =   3.0468862997982E+01
(PID.TID 0000.0001) %MON dynstat_theta_min            =  -3.6205042582064E+00
(PID.TID 0000.0001) %MON dynstat_theta_mean           =   3.3989079838930E+00
(PID.TID 0000.0001) %MON dynstat_theta_sd             =   4.1437316345876E+00
(PID.TID 0000.0001) %MON dynstat_theta_del2           =   1.4720621701762E-01
(PID.TID 0000.0001) %MON dynstat_salt_max             =   3.7410449689352E+01
(PID.TID 0000.0001) %MON dynstat_salt_min             =   3.1074036746348E+01
(PID.TID 0000.0001) %MON dynstat_salt_mean            =   3.4715558639949E+01
(PID.TID 0000.0001) %MON dynstat_salt_sd              =   2.8022325670815E-01
(PID.TID 0000.0001) %MON dynstat_salt_del2            =   2.5307789175174E-02
(PID.TID 0000.0001) %MON advcfl_uvel_max              =   1.0623833048729E-01
(PID.TID 0000.0001) %MON advcfl_vvel_max              =   1.2720009326255E-01
(PID.TID 0000.0001) %MON advcfl_wvel_max              =   5.4790997011496E-01
(PID.TID 0000.0001) %MON advcfl_W_hf_max              =   6.3922829846745E-01
(PID.TID 0000.0001) %MON pe_b_mean                    =   3.7679925604846E-04
(PID.TID 0000.0001) %MON ke_max                       =   7.7651073690390E-02
(PID.TID 0000.0001) %MON ke_mean                      =   3.9826041804288E-04
(PID.TID 0000.0001) %MON ke_vol                       =   1.4474490094807E+18
(PID.TID 0000.0001) %MON vort_r_min                   =  -1.2617310549196E-06
(PID.TID 0000.0001) %MON vort_r_max                   =   1.3527245702732E-06
(PID.TID 0000.0001) %MON vort_a_mean                  =  -1.8569334076122E-05
(PID.TID 0000.0001) %MON vort_a_sd                    =   7.3617135604939E-05
(PID.TID 0000.0001) %MON vort_p_mean                  =  -2.1757776080170E-05
(PID.TID 0000.0001) %MON vort_p_sd                    =   9.9827754575152E-05
(PID.TID 0000.0001) %MON surfExpan_theta_mean         =   1.1803041421789E-05
(PID.TID 0000.0001) %MON surfExpan_salt_mean          =   1.3156894974345E-06
(PID.TID 0000.0001) // =======================================================
(PID.TID 0000.0001) // End MONITOR dynamic field statistics
(PID.TID 0000.0001) // =======================================================
(PID.TID 0000.0001) %CHECKPOINT        26 ckptA
(PID.TID 0000.0001)   Seconds in section "ALL                    [THE_MODEL_MAIN]":
(PID.TID 0000.0001)           User time:  17.2299998
(PID.TID 0000.0001)         System time:  0.439999998
(PID.TID 0000.0001)     Wall clock time:  20.2830629
(PID.TID 0000.0001)          No. starts: 1
(PID.TID 0000.0001)           No. stops: 1
(PID.TID 0000.0001)   Seconds in section "INITIALISE_FIXED       [THE_MODEL_MAIN]":
(PID.TID 0000.0001)           User time:  0.140000006
(PID.TID 0000.0001)         System time:  0.0299999993
(PID.TID 0000.0001)     Wall clock time:  0.246412992
(PID.TID 0000.0001)          No. starts: 1
(PID.TID 0000.0001)           No. stops: 1
(PID.TID 0000.0001)   Seconds in section "THE_MAIN_LOOP          [THE_MODEL_MAIN]":
(PID.TID 0000.0001)           User time:  16.9999996
(PID.TID 0000.0001)         System time:  0.289999994
(PID.TID 0000.0001)     Wall clock time:  18.0105391
(PID.TID 0000.0001)          No. starts: 1
(PID.TID 0000.0001)           No. stops: 1
(PID.TID 0000.0001)   Seconds in section "INITIALISE_VARIA    [THE_MAIN_LOOP]":
(PID.TID 0000.0001)           User time:  0.099999994
(PID.TID 0000.0001)         System time:  0.0200000014
(PID.TID 0000.0001)     Wall clock time:  0.165926933
(PID.TID 0000.0001)          No. starts: 1
(PID.TID 0000.0001)           No. stops: 1
(PID.TID 0000.0001)   Seconds in section "MONITOR             [THE_MAIN_LOOP]":
(PID.TID 0000.0001)           User time:  0.110000014
(PID.TID 0000.0001)         System time:  0.
(PID.TID 0000.0001)     Wall clock time:  0.11580801
(PID.TID 0000.0001)          No. starts: 1
(PID.TID 0000.0001)           No. stops: 1
(PID.TID 0000.0001)   Seconds in section "DO_THE_MODEL_IO     [THE_MAIN_LOOP]":
(PID.TID 0000.0001)           User time:  0.0199999809
(PID.TID 0000.0001)         System time:  0.0899999999
(PID.TID 0000.0001)     Wall clock time:  0.164653063
(PID.TID 0000.0001)          No. starts: 1
(PID.TID 0000.0001)           No. stops: 1
(PID.TID 0000.0001)   Seconds in section "MAIN LOOP           [THE_MAIN_LOOP]":
(PID.TID 0000.0001)           User time:  16.7699996
(PID.TID 0000.0001)         System time:  0.179999992
(PID.TID 0000.0001)     Wall clock time:  17.5639989
(PID.TID 0000.0001)          No. starts: 1
(PID.TID 0000.0001)           No. stops: 1
(PID.TID 0000.0001)   Seconds in section "FORWARD_STEP        [THE_MAIN_LOOP]":
(PID.TID 0000.0001)           User time:  16.7699996
(PID.TID 0000.0001)         System time:  0.179999992
(PID.TID 0000.0001)     Wall clock time:  17.5632203
(PID.TID 0000.0001)          No. starts: 26
(PID.TID 0000.0001)           No. stops: 26
(PID.TID 0000.0001)   Seconds in section "EXTERNAL_FIELDS_LOAD[FORWARD_STEP]":
(PID.TID 0000.0001)           User time:  0.
(PID.TID 0000.0001)         System time:  0.
(PID.TID 0000.0001)     Wall clock time:  0.000752687454
(PID.TID 0000.0001)          No. starts: 26
(PID.TID 0000.0001)           No. stops: 26
(PID.TID 0000.0001)   Seconds in section "DO_ATMOSPHERIC_PHYS [FORWARD_STEP]":
(PID.TID 0000.0001)           User time:  0.
(PID.TID 0000.0001)         System time:  0.
(PID.TID 0000.0001)     Wall clock time:  0.000749826431
(PID.TID 0000.0001)          No. starts: 26
(PID.TID 0000.0001)           No. stops: 26
(PID.TID 0000.0001)   Seconds in section "DO_OCEANIC_PHYS     [FORWARD_STEP]":
(PID.TID 0000.0001)           User time:  0.14000082
(PID.TID 0000.0001)         System time:  0.
(PID.TID 0000.0001)     Wall clock time:  0.143619061
(PID.TID 0000.0001)          No. starts: 26
(PID.TID 0000.0001)           No. stops: 26
(PID.TID 0000.0001)   Seconds in section "THERMODYNAMICS      [FORWARD_STEP]":
(PID.TID 0000.0001)           User time:  3.32000113
(PID.TID 0000.0001)         System time:  0.00999999046
(PID.TID 0000.0001)     Wall clock time:  3.37089443
(PID.TID 0000.0001)          No. starts: 26
(PID.TID 0000.0001)           No. stops: 26
(PID.TID 0000.0001)   Seconds in section "DYNAMICS            [FORWARD_STEP]":
(PID.TID 0000.0001)           User time:  7.12999934
(PID.TID 0000.0001)         System time:  0.0100000203
(PID.TID 0000.0001)     Wall clock time:  7.17682052
(PID.TID 0000.0001)          No. starts: 26
(PID.TID 0000.0001)           No. stops: 26
(PID.TID 0000.0001)   Seconds in section "SOLVE_FOR_PRESSURE  [FORWARD_STEP]":
(PID.TID 0000.0001)           User time:  1.8000012
(PID.TID 0000.0001)         System time:  0.0200000107
(PID.TID 0000.0001)     Wall clock time:  1.87520981
(PID.TID 0000.0001)          No. starts: 26
(PID.TID 0000.0001)           No. stops: 26
(PID.TID 0000.0001)   Seconds in section "UV_CORRECTION_STEP  [FORWARD_STEP]":
(PID.TID 0000.0001)           User time:  0.409998417
(PID.TID 0000.0001)         System time:  0.0100000054
(PID.TID 0000.0001)     Wall clock time:  0.423228502
(PID.TID 0000.0001)          No. starts: 26
(PID.TID 0000.0001)           No. stops: 26
(PID.TID 0000.0001)   Seconds in section "TS_CORRECTION_STEP  [FORWARD_STEP]":
(PID.TID 0000.0001)           User time:  0.730000138
(PID.TID 0000.0001)         System time:  0.
(PID.TID 0000.0001)     Wall clock time:  0.767135859
(PID.TID 0000.0001)          No. starts: 26
(PID.TID 0000.0001)           No. stops: 26
(PID.TID 0000.0001)   Seconds in section "BLOCKING_EXCHANGES  [FORWARD_STEP]":
(PID.TID 0000.0001)           User time:  0.210002005
(PID.TID 0000.0001)         System time:  0.
(PID.TID 0000.0001)     Wall clock time:  0.234942913
(PID.TID 0000.0001)          No. starts: 26
(PID.TID 0000.0001)           No. stops: 26
(PID.TID 0000.0001)   Seconds in section "DO_STATEVARS_DIAGS  [FORWARD_STEP]":
(PID.TID 0000.0001)           User time:  0.
(PID.TID 0000.0001)         System time:  0.
(PID.TID 0000.0001)     Wall clock time:  0.000768184662
(PID.TID 0000.0001)          No. starts: 26
(PID.TID 0000.0001)           No. stops: 26
(PID.TID 0000.0001)   Seconds in section "MONITOR             [FORWARD_STEP]":
(PID.TID 0000.0001)           User time:  2.94999808
(PID.TID 0000.0001)         System time:  0.00999999046
(PID.TID 0000.0001)     Wall clock time:  3.00413513
(PID.TID 0000.0001)          No. starts: 26
(PID.TID 0000.0001)           No. stops: 26
(PID.TID 0000.0001)   Seconds in section "DO_THE_MODEL_IO     [FORWARD_STEP]":
(PID.TID 0000.0001)           User time:  0.0699987411
(PID.TID 0000.0001)         System time:  0.119999975
(PID.TID 0000.0001)     Wall clock time:  0.553340435
(PID.TID 0000.0001)          No. starts: 26
(PID.TID 0000.0001)           No. stops: 26
(PID.TID 0000.0001)   Seconds in section "WRITE_CHECKPOINT    [FORWARD_STEP]":
(PID.TID 0000.0001)           User time:  0.
(PID.TID 0000.0001)         System time:  0.
(PID.TID 0000.0001)     Wall clock time:  0.000767707825
(PID.TID 0000.0001)          No. starts: 26
(PID.TID 0000.0001)           No. stops: 26
(PID.TID 0000.0001)   Seconds in section "WRITE_CHECKPOINT       [THE_MODEL_MAIN]":
(PID.TID 0000.0001)           User time:  0.0900001526
(PID.TID 0000.0001)         System time:  0.120000005
(PID.TID 0000.0001)     Wall clock time:  2.0259738
(PID.TID 0000.0001)          No. starts: 1
(PID.TID 0000.0001)           No. stops: 1
(PID.TID 0000.0001) // ======================================================
(PID.TID 0000.0001) // Tile <-> Tile communication statistics
(PID.TID 0000.0001) // ======================================================
(PID.TID 0000.0001) // o Tile number: 000001
(PID.TID 0000.0001) //         No. X exchanges =              0
(PID.TID 0000.0001) //            Max. X spins =              0
(PID.TID 0000.0001) //            Min. X spins =     1000000000
(PID.TID 0000.0001) //          Total. X spins =              0
(PID.TID 0000.0001) //            Avg. X spins =       0.00E+00
(PID.TID 0000.0001) //         No. Y exchanges =              0
(PID.TID 0000.0001) //            Max. Y spins =              0
(PID.TID 0000.0001) //            Min. Y spins =     1000000000
(PID.TID 0000.0001) //          Total. Y spins =              0
(PID.TID 0000.0001) //            Avg. Y spins =       0.00E+00
(PID.TID 0000.0001) // o Tile number: 000002
(PID.TID 0000.0001) //         No. X exchanges =              0
(PID.TID 0000.0001) //            Max. X spins =              0
(PID.TID 0000.0001) //            Min. X spins =     1000000000
(PID.TID 0000.0001) //          Total. X spins =              0
(PID.TID 0000.0001) //            Avg. X spins =       0.00E+00
(PID.TID 0000.0001) //         No. Y exchanges =              0
(PID.TID 0000.0001) //            Max. Y spins =              0
(PID.TID 0000.0001) //            Min. Y spins =     1000000000
(PID.TID 0000.0001) //          Total. Y spins =              0
(PID.TID 0000.0001) //            Avg. Y spins =       0.00E+00
(PID.TID 0000.0001) // o Tile number: 000003
(PID.TID 0000.0001) //         No. X exchanges =              0
(PID.TID 0000.0001) //            Max. X spins =              0
(PID.TID 0000.0001) //            Min. X spins =     1000000000
(PID.TID 0000.0001) //          Total. X spins =              0
(PID.TID 0000.0001) //            Avg. X spins =       0.00E+00
(PID.TID 0000.0001) //         No. Y exchanges =              0
(PID.TID 0000.0001) //            Max. Y spins =              0
(PID.TID 0000.0001) //            Min. Y spins =     1000000000
(PID.TID 0000.0001) //          Total. Y spins =              0
(PID.TID 0000.0001) //            Avg. Y spins =       0.00E+00
(PID.TID 0000.0001) // o Tile number: 000004
(PID.TID 0000.0001) //         No. X exchanges =              0
(PID.TID 0000.0001) //            Max. X spins =              0
(PID.TID 0000.0001) //            Min. X spins =     1000000000
(PID.TID 0000.0001) //          Total. X spins =              0
(PID.TID 0000.0001) //            Avg. X spins =       0.00E+00
(PID.TID 0000.0001) //         No. Y exchanges =              0
(PID.TID 0000.0001) //            Max. Y spins =              0
(PID.TID 0000.0001) //            Min. Y spins =     1000000000
(PID.TID 0000.0001) //          Total. Y spins =              0
(PID.TID 0000.0001) //            Avg. Y spins =       0.00E+00
(PID.TID 0000.0001) // o Thread number: 000001
(PID.TID 0000.0001) //            No. barriers =          20798
(PID.TID 0000.0001) //      Max. barrier spins =              1
(PID.TID 0000.0001) //      Min. barrier spins =              1
(PID.TID 0000.0001) //     Total barrier spins =          20798
(PID.TID 0000.0001) //      Avg. barrier spins =       1.00E+00
