(PID.TID 0000.0001) 
(PID.TID 0000.0001) // ======================================================
(PID.TID 0000.0001) //                      MITgcm UV
(PID.TID 0000.0001) //                      =========
(PID.TID 0000.0001) // ======================================================
(PID.TID 0000.0001) // execution environment starting up...
(PID.TID 0000.0001) 
(PID.TID 0000.0001) // MITgcmUV version:  checkpoint63e
(PID.TID 0000.0001) // Build user:        jmc
(PID.TID 0000.0001) // Build host:        baudelaire
(PID.TID 0000.0001) // Build date:        Mon Nov  7 15:54:23 EST 2011
(PID.TID 0000.0001) 
(PID.TID 0000.0001) // =======================================================
(PID.TID 0000.0001) // Execution Environment parameter file "eedata"
(PID.TID 0000.0001) // =======================================================
(PID.TID 0000.0001) ># Example "eedata" file
(PID.TID 0000.0001) ># Lines beginning "#" are comments
(PID.TID 0000.0001) ># nTx - No. threads per process in X
(PID.TID 0000.0001) ># nTy - No. threads per process in Y
(PID.TID 0000.0001) > &EEPARMS
(PID.TID 0000.0001) > nTx=1,
(PID.TID 0000.0001) > nTy=1,
(PID.TID 0000.0001) > /
(PID.TID 0000.0001) ># Note: Some systems use & as the
(PID.TID 0000.0001) ># namelist terminator. Other systems
(PID.TID 0000.0001) ># use a / character (as shown here).
(PID.TID 0000.0001) 
(PID.TID 0000.0001) // =======================================================
(PID.TID 0000.0001) // Computational Grid Specification ( see files "SIZE.h" )
(PID.TID 0000.0001) //                                  ( and "eedata"       )
(PID.TID 0000.0001) // =======================================================
(PID.TID 0000.0001)      nPx =    1 ; /* No. processes in X */
(PID.TID 0000.0001)      nPy =    1 ; /* No. processes in Y */
(PID.TID 0000.0001)      nSx =    3 ; /* No. tiles in X per process */
(PID.TID 0000.0001)      nSy =    2 ; /* No. tiles in Y per process */
(PID.TID 0000.0001)      sNx =   30 ; /* Tile size in X */
(PID.TID 0000.0001)      sNy =   20 ; /* Tile size in Y */
(PID.TID 0000.0001)      OLx =    2 ; /* Tile overlap distance in X */
(PID.TID 0000.0001)      OLy =    2 ; /* Tile overlap distance in Y */
(PID.TID 0000.0001)      nTx =    1 ; /* No. threads in X per process */
(PID.TID 0000.0001)      nTy =    1 ; /* No. threads in Y per process */
(PID.TID 0000.0001)       Nr =   15 ; /* No. levels in the vertical   */
(PID.TID 0000.0001)       Nx =   90 ; /* Total domain size in X ( = nPx*nSx*sNx ) */
(PID.TID 0000.0001)       Ny =   40 ; /* Total domain size in Y ( = nPy*nSy*sNy ) */
(PID.TID 0000.0001)   nTiles =    6 ; /* Total no. tiles per process ( = nSx*nSy ) */
(PID.TID 0000.0001)   nProcs =    1 ; /* Total no. processes ( = nPx*nPy ) */
(PID.TID 0000.0001) nThreads =    1 ; /* Total no. threads per process ( = nTx*nTy ) */
(PID.TID 0000.0001) usingMPI =    F ; /* Flag used to control whether MPI is in use */
(PID.TID 0000.0001)                   /*  note: To execute a program with MPI calls */
(PID.TID 0000.0001)                   /*  it must be launched appropriately e.g     */
(PID.TID 0000.0001)                   /*  "mpirun -np 64 ......"                    */
(PID.TID 0000.0001) useCoupler=    F ;/* Flag used to control communications with   */
(PID.TID 0000.0001)                   /*  other model components, through a coupler */
(PID.TID 0000.0001) debugMode =    F ; /* print debug msg. (sequence of S/R calls)  */
(PID.TID 0000.0001) printMapIncludesZeros=    F ; /* print zeros in Std.Output maps */
(PID.TID 0000.0001) maxLengthPrt1D=   65 /* maxLength of 1D array printed to StdOut */
(PID.TID 0000.0001) 
(PID.TID 0000.0001) // ======================================================
(PID.TID 0000.0001) // Mapping of tiles to threads
(PID.TID 0000.0001) // ======================================================
(PID.TID 0000.0001) // -o- Thread   1, tiles (   1:   3,   1:   2)
(PID.TID 0000.0001) 
(PID.TID 0000.0001) // ======================================================
(PID.TID 0000.0001) // Tile <-> Tile connectvity table
(PID.TID 0000.0001) // ======================================================
(PID.TID 0000.0001) // Tile number: 000001 (process no. = 000001)
(PID.TID 0000.0001) //        WEST: Tile = 000003, Process = 000001, Comm = put
(PID.TID 0000.0001) //                bi = 000003, bj = 000001
(PID.TID 0000.0001) //        EAST: Tile = 000002, Process = 000001, Comm = put
(PID.TID 0000.0001) //                bi = 000002, bj = 000001
(PID.TID 0000.0001) //       SOUTH: Tile = 000004, Process = 000001, Comm = put
(PID.TID 0000.0001) //                bi = 000001, bj = 000002
(PID.TID 0000.0001) //       NORTH: Tile = 000004, Process = 000001, Comm = put
(PID.TID 0000.0001) //                bi = 000001, bj = 000002
(PID.TID 0000.0001) // Tile number: 000002 (process no. = 000001)
(PID.TID 0000.0001) //        WEST: Tile = 000001, Process = 000001, Comm = put
(PID.TID 0000.0001) //                bi = 000001, bj = 000001
(PID.TID 0000.0001) //        EAST: Tile = 000003, Process = 000001, Comm = put
(PID.TID 0000.0001) //                bi = 000003, bj = 000001
(PID.TID 0000.0001) //       SOUTH: Tile = 000005, Process = 000001, Comm = put
(PID.TID 0000.0001) //                bi = 000002, bj = 000002
(PID.TID 0000.0001) //       NORTH: Tile = 000005, Process = 000001, Comm = put
(PID.TID 0000.0001) //                bi = 000002, bj = 000002
(PID.TID 0000.0001) // Tile number: 000003 (process no. = 000001)
(PID.TID 0000.0001) //        WEST: Tile = 000002, Process = 000001, Comm = put
(PID.TID 0000.0001) //                bi = 000002, bj = 000001
(PID.TID 0000.0001) //        EAST: Tile = 000001, Process = 000001, Comm = put
(PID.TID 0000.0001) //                bi = 000001, bj = 000001
(PID.TID 0000.0001) //       SOUTH: Tile = 000006, Process = 000001, Comm = put
(PID.TID 0000.0001) //                bi = 000003, bj = 000002
(PID.TID 0000.0001) //       NORTH: Tile = 000006, Process = 000001, Comm = put
(PID.TID 0000.0001) //                bi = 000003, bj = 000002
(PID.TID 0000.0001) // Tile number: 000004 (process no. = 000001)
(PID.TID 0000.0001) //        WEST: Tile = 000006, Process = 000001, Comm = put
(PID.TID 0000.0001) //                bi = 000003, bj = 000002
(PID.TID 0000.0001) //        EAST: Tile = 000005, Process = 000001, Comm = put
(PID.TID 0000.0001) //                bi = 000002, bj = 000002
(PID.TID 0000.0001) //       SOUTH: Tile = 000001, Process = 000001, Comm = put
(PID.TID 0000.0001) //                bi = 000001, bj = 000001
(PID.TID 0000.0001) //       NORTH: Tile = 000001, Process = 000001, Comm = put
(PID.TID 0000.0001) //                bi = 000001, bj = 000001
(PID.TID 0000.0001) // Tile number: 000005 (process no. = 000001)
(PID.TID 0000.0001) //        WEST: Tile = 000004, Process = 000001, Comm = put
(PID.TID 0000.0001) //                bi = 000001, bj = 000002
(PID.TID 0000.0001) //        EAST: Tile = 000006, Process = 000001, Comm = put
(PID.TID 0000.0001) //                bi = 000003, bj = 000002
(PID.TID 0000.0001) //       SOUTH: Tile = 000002, Process = 000001, Comm = put
(PID.TID 0000.0001) //                bi = 000002, bj = 000001
(PID.TID 0000.0001) //       NORTH: Tile = 000002, Process = 000001, Comm = put
(PID.TID 0000.0001) //                bi = 000002, bj = 000001
(PID.TID 0000.0001) // Tile number: 000006 (process no. = 000001)
(PID.TID 0000.0001) //        WEST: Tile = 000005, Process = 000001, Comm = put
(PID.TID 0000.0001) //                bi = 000002, bj = 000002
(PID.TID 0000.0001) //        EAST: Tile = 000004, Process = 000001, Comm = put
(PID.TID 0000.0001) //                bi = 000001, bj = 000002
(PID.TID 0000.0001) //       SOUTH: Tile = 000003, Process = 000001, Comm = put
(PID.TID 0000.0001) //                bi = 000003, bj = 000001
(PID.TID 0000.0001) //       NORTH: Tile = 000003, Process = 000001, Comm = put
(PID.TID 0000.0001) //                bi = 000003, bj = 000001
(PID.TID 0000.0001) 
(PID.TID 0000.0001)  INI_PARMS: opening model parameter file "data"
(PID.TID 0000.0001)  OPEN_COPY_DATA_FILE: opening file data
(PID.TID 0000.0001) // =======================================================
(PID.TID 0000.0001) // Parameter file "data"
(PID.TID 0000.0001) // =======================================================
(PID.TID 0000.0001) ># ====================
(PID.TID 0000.0001) ># | Model parameters |
(PID.TID 0000.0001) ># ====================
(PID.TID 0000.0001) >#
(PID.TID 0000.0001) ># Continuous equation parameters
(PID.TID 0000.0001) > &PARM01
(PID.TID 0000.0001) > tRef = 15*20.,
(PID.TID 0000.0001) > sRef = 15*35.,
(PID.TID 0000.0001) > viscAr=1.E-3,
(PID.TID 0000.0001) > viscAh=5.E5,
(PID.TID 0000.0001) > diffKhT=0.,
(PID.TID 0000.0001) > diffKrT=3.E-5,
(PID.TID 0000.0001) > diffKhS=0.,
(PID.TID 0000.0001) > diffKrS=3.E-5,
(PID.TID 0000.0001) > rhoConst=1035.,
(PID.TID 0000.0001) > rhoConstFresh=1000.,
(PID.TID 0000.0001) > eosType = 'POLY3',
(PID.TID 0000.0001) > ivdc_kappa=10.,
(PID.TID 0000.0001) > implicitDiffusion=.TRUE.,
(PID.TID 0000.0001) > allowFreezing=.TRUE.,
(PID.TID 0000.0001) > exactConserv=.TRUE.,
(PID.TID 0000.0001) > useRealFreshWaterFlux=.TRUE.,
(PID.TID 0000.0001) > useCDscheme=.TRUE.,
(PID.TID 0000.0001) ># turn on looped cells
(PID.TID 0000.0001) > hFacMin=.05,
(PID.TID 0000.0001) > hFacMindr=50.,
(PID.TID 0000.0001) ># set precision of data files
(PID.TID 0000.0001) > readBinaryPrec=32,
(PID.TID 0000.0001) > /
(PID.TID 0000.0001) >
(PID.TID 0000.0001) ># Elliptic solver parameters
(PID.TID 0000.0001) > &PARM02
(PID.TID 0000.0001) > cg2dMaxIters=500,
(PID.TID 0000.0001) > cg2dTargetResidual=1.E-13,
(PID.TID 0000.0001) > /
(PID.TID 0000.0001) >
(PID.TID 0000.0001) ># Time stepping parameters
(PID.TID 0000.0001) > &PARM03
(PID.TID 0000.0001) > nIter0 =      0,
(PID.TID 0000.0001) > nTimeSteps = 20,
(PID.TID 0000.0001) ># 100 years of integration will yield a reasonable flow field
(PID.TID 0000.0001) ># startTime  =          0.,
(PID.TID 0000.0001) ># endTime    = 3110400000.,
(PID.TID 0000.0001) > deltaTmom = 1200.,
(PID.TID 0000.0001) > tauCD =     321428.,
(PID.TID 0000.0001) > deltaTtracer = 43200.,
(PID.TID 0000.0001) > deltaTClock  = 43200.,
(PID.TID 0000.0001) > deltaTfreesurf=43200.,
(PID.TID 0000.0001) > abEps = 0.1,
(PID.TID 0000.0001) > pChkptFreq= 311040000.,
(PID.TID 0000.0001) > dumpFreq=   311040000.,
(PID.TID 0000.0001) > taveFreq=   311040000.,
(PID.TID 0000.0001) > dumpFreq=   864000.,
(PID.TID 0000.0001) > taveFreq=   864000.,
(PID.TID 0000.0001) >#monitorFreq=31104000.,
(PID.TID 0000.0001) > monitorFreq=1.,
(PID.TID 0000.0001) ># 2 months restoring timescale for temperature
(PID.TID 0000.0001) >#tauThetaClimRelax =  5184000.0,
(PID.TID 0000.0001) ># 6 months restoring timescale for salinity
(PID.TID 0000.0001) > tauSaltClimRelax = 15552000.0,
(PID.TID 0000.0001) >#periodicExternalForcing=.TRUE.,
(PID.TID 0000.0001) >#externForcingPeriod=2592000.,
(PID.TID 0000.0001) >#externForcingCycle=31104000.,
(PID.TID 0000.0001) > /
(PID.TID 0000.0001) >
(PID.TID 0000.0001) ># Gridding parameters
(PID.TID 0000.0001) > &PARM04
(PID.TID 0000.0001) > usingSphericalPolarGrid=.TRUE.,
(PID.TID 0000.0001) > delR= 50.,  70., 100., 140., 190.,
(PID.TID 0000.0001) >      240., 290., 340., 390., 440.,
(PID.TID 0000.0001) >      490., 540., 590., 640., 690.,
(PID.TID 0000.0001) > ygOrigin=-80.,
(PID.TID 0000.0001) > dySpacing=4.,
(PID.TID 0000.0001) > dxSpacing=4.,
(PID.TID 0000.0001) > /
(PID.TID 0000.0001) >
(PID.TID 0000.0001) ># Input datasets
(PID.TID 0000.0001) > &PARM05
(PID.TID 0000.0001) > bathyFile=      'Topog.bin',
(PID.TID 0000.0001) > hydrogThetaFile='Lev_clim_theta.bin',
(PID.TID 0000.0001) > hydrogSaltFile= 'Lev_clim_salt.bin',
(PID.TID 0000.0001) > zonalWindFile=  'Taux.bin',
(PID.TID 0000.0001) > meridWindFile=  'Tauy.bin',
(PID.TID 0000.0001) >#thetaClimFile=  'SST.bin',
(PID.TID 0000.0001) > saltClimFile=   'SSS.bin',
(PID.TID 0000.0001) > /
(PID.TID 0000.0001) 
(PID.TID 0000.0001)  INI_PARMS ; starts to read PARM01
(PID.TID 0000.0001)  INI_PARMS ; read PARM01 : OK
(PID.TID 0000.0001) S/R INI_PARMS: No request for barotropic solver
(PID.TID 0000.0001) S/R INI_PARMS: => Use implicitFreeSurface as default
(PID.TID 0000.0001)  INI_PARMS ; starts to read PARM02
(PID.TID 0000.0001)  INI_PARMS ; read PARM02 : OK
(PID.TID 0000.0001)  INI_PARMS ; starts to read PARM03
(PID.TID 0000.0001)  INI_PARMS ; read PARM03 : OK
(PID.TID 0000.0001)  INI_PARMS ; starts to read PARM04
(PID.TID 0000.0001)  INI_PARMS ; read PARM04 : OK
(PID.TID 0000.0001)  INI_PARMS ; starts to read PARM05
(PID.TID 0000.0001)  INI_PARMS ; read PARM05 : OK
(PID.TID 0000.0001)  INI_PARMS: finished reading file "data"
(PID.TID 0000.0001)  PACKAGES_BOOT: opening data.pkg
(PID.TID 0000.0001)  OPEN_COPY_DATA_FILE: opening file data.pkg
(PID.TID 0000.0001) // =======================================================
(PID.TID 0000.0001) // Parameter file "data.pkg"
(PID.TID 0000.0001) // =======================================================
(PID.TID 0000.0001) ># Packages
(PID.TID 0000.0001) > &PACKAGES
(PID.TID 0000.0001) > useGMRedi=.TRUE.,
(PID.TID 0000.0001) > useEBM=.TRUE.,
(PID.TID 0000.0001) > /
(PID.TID 0000.0001) >
(PID.TID 0000.0001) 
(PID.TID 0000.0001)  PACKAGES_BOOT: finished reading data.pkg
(PID.TID 0000.0001)  GM_READPARMS: opening data.gmredi
(PID.TID 0000.0001)  OPEN_COPY_DATA_FILE: opening file data.gmredi
(PID.TID 0000.0001) // =======================================================
(PID.TID 0000.0001) // Parameter file "data.gmredi"
(PID.TID 0000.0001) // =======================================================
(PID.TID 0000.0001) ># GM+Redi package parameters:
(PID.TID 0000.0001) >
(PID.TID 0000.0001) >#-from MOM :
(PID.TID 0000.0001) ># GM_background_K: 	G & Mc.W  diffusion coefficient
(PID.TID 0000.0001) ># GM_maxSlope    :	max slope of isopycnals
(PID.TID 0000.0001) ># GM_Scrit       :	transition for scaling diffusion coefficient
(PID.TID 0000.0001) ># GM_Sd          :	half width scaling for diffusion coefficient
(PID.TID 0000.0001) ># GM_taper_scheme:	slope clipping or one of the tapering schemes
(PID.TID 0000.0001) ># GM_Kmin_horiz  :	horizontal diffusion minimum value
(PID.TID 0000.0001) >
(PID.TID 0000.0001) >#-Option parameters (needs to "define" options in GMREDI_OPTIONS.h")
(PID.TID 0000.0001) ># GM_isopycK     :	isopycnal diffusion coefficient (default=GM_background_K)
(PID.TID 0000.0001) ># GM_AdvForm     :	turn on GM Advective form       (default=Skew flux form)
(PID.TID 0000.0001) >
(PID.TID 0000.0001) > &GM_PARM01
(PID.TID 0000.0001) >  GM_background_K    = 1.e+3,
(PID.TID 0000.0001) >  GM_taper_scheme    = 'gkw91',
(PID.TID 0000.0001) >  GM_maxSlope        = 1.e-2,
(PID.TID 0000.0001) >  GM_Kmin_horiz      = 50.,
(PID.TID 0000.0001) >  GM_Scrit           = 4.e-3,
(PID.TID 0000.0001) >  GM_Sd              = 1.e-3,
(PID.TID 0000.0001) ># GM_Visbeck_alpha   = 0.,
(PID.TID 0000.0001) ># GM_Visbeck_length  = 2.e+5,
(PID.TID 0000.0001) ># GM_Visbeck_depth   = 1.e+3,
(PID.TID 0000.0001) ># GM_Visbeck_maxval_K= 2.5e+3,
(PID.TID 0000.0001) > /
(PID.TID 0000.0001) >
(PID.TID 0000.0001) >
(PID.TID 0000.0001) 
(PID.TID 0000.0001)  GM_READPARMS: finished reading data.gmredi
(PID.TID 0000.0001)  EBM_READPARMS: opening data.ebm
(PID.TID 0000.0001)  OPEN_COPY_DATA_FILE: opening file data.ebm
(PID.TID 0000.0001) // =======================================================
(PID.TID 0000.0001) // Parameter file "data.ebm"
(PID.TID 0000.0001) // =======================================================
(PID.TID 0000.0001) ># Packages
(PID.TID 0000.0001) > &EBM_PARM01
(PID.TID 0000.0001) ># convert from mm/year to m/sec
(PID.TID 0000.0001) > scale_runoff     = 3.170979198E-11,
(PID.TID 0000.0001) > tauThetaZonRelax = 5184000.0,
(PID.TID 0000.0001) > RunoffFile       = 'Runoff.bin',
(PID.TID 0000.0001) > /
(PID.TID 0000.0001) 
(PID.TID 0000.0001)  EBM_READPARMS: finished reading data.ebm
(PID.TID 0000.0001)  EBM_READPARMS: set tauThetaClimRelax to tauThetaZonRelax value
(PID.TID 0000.0001) SET_PARMS: done
(PID.TID 0000.0001) Enter INI_VERTICAL_GRID: setInterFDr=    T ; setCenterDr=    F
(PID.TID 0000.0001) %MON XC_max                       =   3.5800000000000E+02
(PID.TID 0000.0001) %MON XC_min                       =   2.0000000000000E+00
(PID.TID 0000.0001) %MON XC_mean                      =   1.8000000000000E+02
(PID.TID 0000.0001) %MON XC_sd                        =   1.0391663325314E+02
(PID.TID 0000.0001) %MON XG_max                       =   3.5600000000000E+02
(PID.TID 0000.0001) %MON XG_min                       =   0.0000000000000E+00
(PID.TID 0000.0001) %MON XG_mean                      =   1.7800000000000E+02
(PID.TID 0000.0001) %MON XG_sd                        =   1.0391663325314E+02
(PID.TID 0000.0001) %MON DXC_max                      =   4.4443898815675E+05
(PID.TID 0000.0001) %MON DXC_min                      =   9.2460385861875E+04
(PID.TID 0000.0001) %MON DXC_mean                     =   3.1372497618153E+05
(PID.TID 0000.0001) %MON DXC_sd                       =   1.1216447457560E+05
(PID.TID 0000.0001) %MON DXF_max                      =   4.4443898815675E+05
(PID.TID 0000.0001) %MON DXF_min                      =   9.2460385861875E+04
(PID.TID 0000.0001) %MON DXF_mean                     =   3.1372497618153E+05
(PID.TID 0000.0001) %MON DXF_sd                       =   1.1216447457560E+05
(PID.TID 0000.0001) %MON DXG_max                      =   4.4470989340816E+05
(PID.TID 0000.0001) %MON DXG_min                      =   7.7223062580781E+04
(PID.TID 0000.0001) %MON DXG_mean                     =   3.1353386340261E+05
(PID.TID 0000.0001) %MON DXG_sd                       =   1.1256651772502E+05
(PID.TID 0000.0001) %MON DXV_max                      =   4.4470989340816E+05
(PID.TID 0000.0001) %MON DXV_min                      =   7.7223062580781E+04
(PID.TID 0000.0001) %MON DXV_mean                     =   3.1353386340261E+05
(PID.TID 0000.0001) %MON DXV_sd                       =   1.1256651772502E+05
(PID.TID 0000.0001) %MON YC_max                       =   7.8000000000000E+01
(PID.TID 0000.0001) %MON YC_min                       =  -7.8000000000000E+01
(PID.TID 0000.0001) %MON YC_mean                      =   0.0000000000000E+00
(PID.TID 0000.0001) %MON YC_sd                        =   4.6173585522461E+01
(PID.TID 0000.0001) %MON YG_max                       =   7.6000000000000E+01
(PID.TID 0000.0001) %MON YG_min                       =  -8.0000000000000E+01
(PID.TID 0000.0001) %MON YG_mean                      =  -2.0000000000000E+00
(PID.TID 0000.0001) %MON YG_sd                        =   4.6173585522461E+01
(PID.TID 0000.0001) %MON DYC_max                      =   4.4470989340816E+05
(PID.TID 0000.0001) %MON DYC_min                      =   4.4470989340816E+05
(PID.TID 0000.0001) %MON DYC_mean                     =   4.4470989340815E+05
(PID.TID 0000.0001) %MON DYC_sd                       =   3.8417056202888E-09
(PID.TID 0000.0001) %MON DYF_max                      =   4.4470989340816E+05
(PID.TID 0000.0001) %MON DYF_min                      =   4.4470989340816E+05
(PID.TID 0000.0001) %MON DYF_mean                     =   4.4470989340815E+05
(PID.TID 0000.0001) %MON DYF_sd                       =   3.8417056202888E-09
(PID.TID 0000.0001) %MON DYG_max                      =   4.4470989340816E+05
(PID.TID 0000.0001) %MON DYG_min                      =   4.4470989340816E+05
(PID.TID 0000.0001) %MON DYG_mean                     =   4.4470989340815E+05
(PID.TID 0000.0001) %MON DYG_sd                       =   3.8417056202888E-09
(PID.TID 0000.0001) %MON DYU_max                      =   4.4470989340816E+05
(PID.TID 0000.0001) %MON DYU_min                      =   4.4470989340816E+05
(PID.TID 0000.0001) %MON DYU_mean                     =   4.4470989340815E+05
(PID.TID 0000.0001) %MON DYU_sd                       =   3.8417056202888E-09
(PID.TID 0000.0001) %MON RA_max                       =   1.9760627980089E+11
(PID.TID 0000.0001) %MON RA_min                       =   4.1109698667290E+10
(PID.TID 0000.0001) %MON RA_mean                      =   1.3948826965196E+11
(PID.TID 0000.0001) %MON RA_sd                        =   4.9870522472902E+10
(PID.TID 0000.0001) %MON RAW_max                      =   1.9760627980089E+11
(PID.TID 0000.0001) %MON RAW_min                      =   4.1109698667290E+10
(PID.TID 0000.0001) %MON RAW_mean                     =   1.3948826965196E+11
(PID.TID 0000.0001) %MON RAW_sd                       =   4.9870522472902E+10
(PID.TID 0000.0001) %MON RAS_max                      =   1.9772672958215E+11
(PID.TID 0000.0001) %MON RAS_min                      =   3.4334886267983E+10
(PID.TID 0000.0001) %MON RAS_mean                     =   1.3940329716694E+11
(PID.TID 0000.0001) %MON RAS_sd                       =   5.0049278732353E+10
(PID.TID 0000.0001) %MON RAZ_max                      =   1.9772672958215E+11
(PID.TID 0000.0001) %MON RAZ_min                      =   3.4334886267983E+10
(PID.TID 0000.0001) %MON RAZ_mean                     =   1.3940329716694E+11
(PID.TID 0000.0001) %MON RAZ_sd                       =   5.0049278732353E+10
(PID.TID 0000.0001) %MON AngleCS_max                  =   1.0000000000000E+00
(PID.TID 0000.0001) %MON AngleCS_min                  =   1.0000000000000E+00
(PID.TID 0000.0001) %MON AngleCS_mean                 =   1.0000000000000E+00
(PID.TID 0000.0001) %MON AngleCS_sd                   =   0.0000000000000E+00
(PID.TID 0000.0001) %MON AngleSN_max                  =   0.0000000000000E+00
(PID.TID 0000.0001) %MON AngleSN_min                  =   0.0000000000000E+00
(PID.TID 0000.0001) %MON AngleSN_mean                 =   0.0000000000000E+00
(PID.TID 0000.0001) %MON AngleSN_sd                   =   0.0000000000000E+00
(PID.TID 0000.0001)  MDS_READ_FIELD: opening global file: Topog.bin
(PID.TID 0000.0001) // =======================================================
(PID.TID 0000.0001) // Field Model R_low (ini_masks_etc)
(PID.TID 0000.0001) // CMIN =         -5.200000000000000E+03
(PID.TID 0000.0001) // CMAX =         -5.000000000000000E+01
(PID.TID 0000.0001) // CINT =          1.907407407407407E+02
(PID.TID 0000.0001) // SYMBOLS (CMIN->CMAX): -abcdefghijklmnopqrstuvwxyz+
(PID.TID 0000.0001) //                  0.0: .
(PID.TID 0000.0001) // RANGE I (Lo:Hi:Step):(    -1:    92:     1)
(PID.TID 0000.0001) // RANGE J (Lo:Hi:Step):(    42:    -1:    -1)
(PID.TID 0000.0001) // RANGE K (Lo:Hi:Step):(   1:   1:   1)
(PID.TID 0000.0001) // =======================================================
(PID.TID 0000.0001) K =   1
(PID.TID 0000.0001) //                I=8       I=18      I=28      I=34      I=44      I=54      I=60      I=70      I=80      I=90
(PID.TID 0000.0001) // |--J--|101234567|901234567|901234567|901290123|567890123|567890123|567890129|123456789|123456789|123456789|12
(PID.TID 0000.0001) //     42 .................................................yywvqnkk...............................wvss..........
(PID.TID 0000.0001) //     41 ......................................................................................................
(PID.TID 0000.0001) //     40 ......................................................................................................
(PID.TID 0000.0001) //     39 nkkknqxz...........................................................................qsv.........vqnnkkk
(PID.TID 0000.0001) //     38 kkkkkq..............................................................................uv........vvsqkkkk
(PID.TID 0000.0001) //     37 kknv................................................................................wqq...qnqu..sukknv
(PID.TID 0000.0001) //     36 wwz..............................................kknqz..............................unkk.kknqqnnqswwz.
(PID.TID 0000.0001) //     35 ..++.....................................yvwz.hdkkkkkkuq.ddhhkq......................nhhhhknkknqnq..++
(PID.TID 0000.0001) //     34 ..........................................vvv--d---------ddhhhkn......................wkhhhhhhhdkv....
(PID.TID 0000.0001) //     33 d.........................................kk---------------ddhhnq...q...............zz.skhdhhhddddd...
(PID.TID 0000.0001) //     32 ..........................................h-----------------dhhhn...n...............nhdhd-dhkkhd-d....
(PID.TID 0000.0001) //     31 ..........................................--------------------ddd...d.............hd------dhnhd--.....
(PID.TID 0000.0001) //     30 .........................................---------d-------------d...d............d--------hkh-----....
(PID.TID 0000.0001) //     29 .................................z...zudh----------------------dhhk.hhk.........n-------dhhdh--dhh....
(PID.TID 0000.0001) //     28 ................................yq..yqdd---------------------dddhhh.hhh......nk.d-------dd-----hk.....
(PID.TID 0000.0001) //     27 .................................-...-----------------ddd-----ddhhhhhhhhk...hhkqq-------hd----dh......
(PID.TID 0000.0001) //     26 .................hkk....s.....khd-khd----d--------d-----d-------dhhhdhhhkh..k.hddh-----dhd----dk......
(PID.TID 0000.0001) //     25 ...............hhhhh..kknn...qhh.-hh.----d----------------------ddhhddhhhhh....hhhd----dh-----hh......
(PID.TID 0000.0001) //     24 ..............nhhhhhs.hhkn...hhh.-hh.----------dd--------------dddhhddhhhhkhdh.khh.-nd--dd----dh......
(PID.TID 0000.0001) //     23 ...............-dhddknhhhh.++nnhh-nhh----hdd----h------d-----dddddhhddhhhhkhhhk......khddhh---ddd.....
(PID.TID 0000.0001) //     22 dddh..........--dhhhkhhhhh..++..--..----dd-dhhddhd------hd--ddhhhhhhhhhhhhkkhhkk.......khhdhhhd--ddddh
(PID.TID 0000.0001) //     21 --dh.........d--ddhhddddddd.....nn..nnhhdhd-hnhhhd-------dddhhhhddhhddhhhhhkkkkk........hhhhdhd-----dh
(PID.TID 0000.0001) //     20 -dddh.......h--dhdhdd--dd--...........-...qqkqhhh---------ddddddddhhddhhhhhhhhh............h----dd-ddd
(PID.TID 0000.0001) //     19 d---d.......hddhhhhk---------.hhhdhhhd-s...--hhh--d---dd----hhdddhhhdhhhhhhhhhh-...........d---dhhd---
(PID.TID 0000.0001) //     22 dddh..........--dhhhkhhhhh..++..--..----dd-dhhddhd------hd--ddhhhhhhhhhhhhkkhhkk.......khhdhhhd--ddddh
(PID.TID 0000.0001) //     21 --dh.........d--ddhhddddddd.....nn..nnhhdhd-hnhhhd-------dddhhhhddhhddhhhhhkkkkk........hhhhdhd-----dh
(PID.TID 0000.0001) //     20 -dddh.......h--dhdhdd--dd--...........-...qqkqhhh---------ddddddddhhddhhhhhhhhh............h----dd-ddd
(PID.TID 0000.0001) //     19 d---d.......hddhhhhk---------.hhhdhhhd-s...--hhh--d---dd----hhdddhhhdhhhhhhhhhh-...........d---dhhd---
(PID.TID 0000.0001) //     18 ----d.......khhhhhhh---d--------ku--ku....khhk--hhhhd--h--dddhhhhhhhhhhhhhhhhhddd..........d---dhh----
(PID.TID 0000.0001) //     17 d---d.......k..dhhhdd--d--------s.--s......ddhddhkkn----dddhhhhhhhhkhhhkhhhhhdddh..........d---dhhd---
(PID.TID 0000.0001) //     16 d---d......kn.--hhkhdd-d------h...h........vkkkd-hhn---ddddddhhhhhhkhhhkhhhhhdhhd-........hd---dhhd---
(PID.TID 0000.0001) //     15 ---hd......hh.---dhhhdddd----d..............ddnkddhq----dddddhhhhhkkhhkkhhhhhhhhdh.......nhd---dhd---h
(PID.TID 0000.0001) //     14 d---dh....qddh---ddhhhhddd----...............dnhhdh------dddhhhhhhkkhhkkkhhhhhhhh-......khhd--dhhhd---
(PID.TID 0000.0001) //     13 dh---h...hk-dhddhddddhhhhhd---..............-dshhhh------d--ddhhhhhkhhhkkhhhhhhhhd.....khhhddddhkhdh--
(PID.TID 0000.0001) //     12 hd---dhdhh---khdd-ddhkhhhhh----.---.----....---nqsk----------ddddhhhdhhhkhhhhhhhhd....n----dhhhkhhhd--
(PID.TID 0000.0001) //     11 hd--dd--hd--dkhd--dhhkhhhhhdddd---d-------xhd--hv.kd-d--d------ddhhhdhhhhhhdhhhhh....n-------hhkkhhd--
(PID.TID 0000.0001) //     10 hhddd------hkkkd--hhhkkkkhhhhhddddddddddddhh---h.snk----d------ddhhhdhhhhhhdddhhh...+d------ddhhkhhhdd
(PID.TID 0000.0001) //      9 hhhhd-----ddhhhhdhknkkhhhhkhkhhhhhhhhhhhdhhd--dhvsn--------ddddddhhkdhhkhhhhdddhh...xd--------dhhkhhhh
(PID.TID 0000.0001) //      8 nkhhhhhh---dhhdddddhqnhdhhhhhhhhhhhhhhhhhhhhdddhvd--------ddhhhhhhkhhhkhhdd--dddh..zxqnkkhddddhhhhnkhh
(PID.TID 0000.0001) //      7 hhd----d---------dddhkd--hhhhhhdddhddddhhhhhhhd--------dddhhhhhhkkhhkkhh-------ddhhhhhdhhhhd---dhhhhd-
(PID.TID 0000.0001) //      6 ------------------dddhnhddhhhhhdddhdddddhhhhhk-----dddddhkkhhdd------------------ddhhhhhhhhhh--d------
(PID.TID 0000.0001) //      5 -------------d--dhdhhkkkkhh.hhhhhhhhhhhhhhhhkknhhhhhhkkkhhhhhdd----------d---ddddhhh.xnhhddddd--------
(PID.TID 0000.0001) //      4 dhhhhhdddh.h..................................qnkkkhhhhhhhhhhhhdddddddddddddhdhhhk...wkhhhhddddddddhhh
(PID.TID 0000.0001) //      3 .................................................nnkhhhhhhhhhhhhkknkkknkkkk..........vnkhhhhhhhh......
(PID.TID 0000.0001) //      2 .................................................yywvqnkk...............................wvss..........
(PID.TID 0000.0001) //      1 ......................................................................................................
(PID.TID 0000.0001) //      0 ......................................................................................................
(PID.TID 0000.0001) //     -1 nkkknqxz...........................................................................qsv.........vqnnkkk
(PID.TID 0000.0001) // =======================================================
(PID.TID 0000.0001) // END OF FIELD                                          =
(PID.TID 0000.0001) // =======================================================
(PID.TID 0000.0001) 
(PID.TID 0000.0001) // =======================================================
(PID.TID 0000.0001) // Field Model Ro_surf (ini_masks_etc)
(PID.TID 0000.0001) // CMIN =          1.000000000000000E+32
(PID.TID 0000.0001) // CMAX =         -1.000000000000000E+32
(PID.TID 0000.0001) // CINT =          0.000000000000000E+00
(PID.TID 0000.0001) // SYMBOLS (CMIN->CMAX): -abcdefghijklmnopqrstuvwxyz+
(PID.TID 0000.0001) //                  0.0: .
(PID.TID 0000.0001) // RANGE I (Lo:Hi:Step):(    -1:    92:     1)
(PID.TID 0000.0001) // RANGE J (Lo:Hi:Step):(    42:    -1:    -1)
(PID.TID 0000.0001) // RANGE K (Lo:Hi:Step):(   1:   1:   1)
(PID.TID 0000.0001) // =======================================================
(PID.TID 0000.0001) // =======================================================
(PID.TID 0000.0001) // END OF FIELD                                          =
(PID.TID 0000.0001) // =======================================================
(PID.TID 0000.0001) 
(PID.TID 0000.0001) // =======================================================
(PID.TID 0000.0001) // Field hFacC at iteration          0
(PID.TID 0000.0001) // CMIN =          1.000000000000000E+00
(PID.TID 0000.0001) // CMAX =          1.000000000000000E+00
(PID.TID 0000.0001) // CINT =          0.000000000000000E+00
(PID.TID 0000.0001) // SYMBOLS (CMIN->CMAX): -abcdefghijklmnopqrstuvwxyz+
(PID.TID 0000.0001) //                  0.0: .
(PID.TID 0000.0001) // RANGE I (Lo:Hi:Step):(    -1:    92:     1)
(PID.TID 0000.0001) // RANGE J (Lo:Hi:Step):(    42:    -1:    -1)
(PID.TID 0000.0001) // RANGE K (Lo:Hi:Step):(   1:   1:   1)
(PID.TID 0000.0001) // =======================================================
(PID.TID 0000.0001) // =======================================================
(PID.TID 0000.0001) // END OF FIELD                                          =
(PID.TID 0000.0001) // =======================================================
(PID.TID 0000.0001) 
(PID.TID 0000.0001) // =======================================================
(PID.TID 0000.0001) // Field hFacW at iteration          0
(PID.TID 0000.0001) // CMIN =          1.000000000000000E+00
(PID.TID 0000.0001) // CMAX =          1.000000000000000E+00
(PID.TID 0000.0001) // CINT =          0.000000000000000E+00
(PID.TID 0000.0001) // SYMBOLS (CMIN->CMAX): -abcdefghijklmnopqrstuvwxyz+
(PID.TID 0000.0001) //                  0.0: .
(PID.TID 0000.0001) // RANGE I (Lo:Hi:Step):(    -1:    92:     1)
(PID.TID 0000.0001) // RANGE J (Lo:Hi:Step):(    42:    -1:    -1)
(PID.TID 0000.0001) // RANGE K (Lo:Hi:Step):(   1:   1:   1)
(PID.TID 0000.0001) // =======================================================
(PID.TID 0000.0001) // =======================================================
(PID.TID 0000.0001) // END OF FIELD                                          =
(PID.TID 0000.0001) // =======================================================
(PID.TID 0000.0001) 
(PID.TID 0000.0001) // =======================================================
(PID.TID 0000.0001) // Field hFacS at iteration          0
(PID.TID 0000.0001) // CMIN =          1.000000000000000E+00
(PID.TID 0000.0001) // CMAX =          1.000000000000000E+00
(PID.TID 0000.0001) // CINT =          0.000000000000000E+00
(PID.TID 0000.0001) // SYMBOLS (CMIN->CMAX): -abcdefghijklmnopqrstuvwxyz+
(PID.TID 0000.0001) //                  0.0: .
(PID.TID 0000.0001) // RANGE I (Lo:Hi:Step):(    -1:    92:     1)
(PID.TID 0000.0001) // RANGE J (Lo:Hi:Step):(    42:    -1:    -1)
(PID.TID 0000.0001) // RANGE K (Lo:Hi:Step):(   1:   1:   1)
(PID.TID 0000.0001) // =======================================================
(PID.TID 0000.0001) // =======================================================
(PID.TID 0000.0001) // END OF FIELD                                          =
(PID.TID 0000.0001) // =======================================================
(PID.TID 0000.0001) 
(PID.TID 0000.0001) GAD_INIT_FIXED: GAD_OlMinSize=  1  0  1
(PID.TID 0000.0001) 
(PID.TID 0000.0001) // ===================================
(PID.TID 0000.0001) // GAD parameters :
(PID.TID 0000.0001) // ===================================
(PID.TID 0000.0001) tempAdvScheme =   /* Temp. Horiz.Advection scheme selector */
(PID.TID 0000.0001)                       2
(PID.TID 0000.0001)     ;
(PID.TID 0000.0001) tempVertAdvScheme =   /* Temp. Vert. Advection scheme selector */
(PID.TID 0000.0001)                       2
(PID.TID 0000.0001)     ;
(PID.TID 0000.0001) tempMultiDimAdvec =   /* use Muti-Dim Advec method for Temp */
(PID.TID 0000.0001)                   F
(PID.TID 0000.0001)     ;
(PID.TID 0000.0001) tempSOM_Advection = /* use 2nd Order Moment Advection for Temp */
(PID.TID 0000.0001)                   F
(PID.TID 0000.0001)     ;
(PID.TID 0000.0001) AdamsBashforthGt = /* apply Adams-Bashforth extrapolation on Gt */
(PID.TID 0000.0001)                   T
(PID.TID 0000.0001)     ;
(PID.TID 0000.0001) AdamsBashforth_T = /* apply Adams-Bashforth extrapolation on Temp */
(PID.TID 0000.0001)                   F
(PID.TID 0000.0001)     ;
(PID.TID 0000.0001) saltAdvScheme =   /* Salt. Horiz.advection scheme selector */
(PID.TID 0000.0001)                       2
(PID.TID 0000.0001)     ;
(PID.TID 0000.0001) saltVertAdvScheme =   /* Salt. Vert. Advection scheme selector */
(PID.TID 0000.0001)                       2
(PID.TID 0000.0001)     ;
(PID.TID 0000.0001) saltMultiDimAdvec =   /* use Muti-Dim Advec method for Salt */
(PID.TID 0000.0001)                   F
(PID.TID 0000.0001)     ;
(PID.TID 0000.0001) saltSOM_Advection = /* use 2nd Order Moment Advection for Salt */
(PID.TID 0000.0001)                   F
(PID.TID 0000.0001)     ;
(PID.TID 0000.0001) AdamsBashforthGs = /* apply Adams-Bashforth extrapolation on Gs */
(PID.TID 0000.0001)                   T
(PID.TID 0000.0001)     ;
(PID.TID 0000.0001) AdamsBashforth_S = /* apply Adams-Bashforth extrapolation on Salt */
(PID.TID 0000.0001)                   F
(PID.TID 0000.0001)     ;
(PID.TID 0000.0001) // ===================================
(PID.TID 0000.0001) %MON fCori_max                    =   1.4265546244797E-04
(PID.TID 0000.0001) %MON fCori_min                    =  -1.4265546244797E-04
(PID.TID 0000.0001) %MON fCori_mean                   =   5.0114233750441E-20
(PID.TID 0000.0001) %MON fCori_sd                     =   9.6599226301547E-05
(PID.TID 0000.0001) %MON fCoriG_max                   =   1.4151032568025E-04
(PID.TID 0000.0001) %MON fCoriG_min                   =  -1.4362679550910E-04
(PID.TID 0000.0001) %MON fCoriG_mean                  =  -3.5906698877276E-06
(PID.TID 0000.0001) %MON fCoriG_sd                    =   9.6548915696246E-05
(PID.TID 0000.0001) %MON fCoriCos_max                 =   1.4575362704741E-04
(PID.TID 0000.0001) %MON fCoriCos_min                 =   3.0322354601388E-05
(PID.TID 0000.0001) %MON fCoriCos_mean                =   1.0288600773633E-04
(PID.TID 0000.0001) %MON fCoriCos_sd                  =   3.6784304327266E-05
(PID.TID 0000.0001) INI_CG2D: CG2D normalisation factor =  9.0544177972206531E-05
(PID.TID 0000.0001) 
(PID.TID 0000.0001) // =======================================================
(PID.TID 0000.0001) // Model configuration
(PID.TID 0000.0001) // =======================================================
(PID.TID 0000.0001) //
(PID.TID 0000.0001) // "Physical" paramters ( PARM01 in namelist )
(PID.TID 0000.0001) //
(PID.TID 0000.0001) buoyancyRelation = /* Type of relation to get Buoyancy */
(PID.TID 0000.0001)               'OCEANIC'
(PID.TID 0000.0001)     ;
(PID.TID 0000.0001) fluidIsAir   =  /* fluid major constituent is Air */
(PID.TID 0000.0001)                   F
(PID.TID 0000.0001)     ;
(PID.TID 0000.0001) fluidIsWater =  /* fluid major constituent is Water */
(PID.TID 0000.0001)                   T
(PID.TID 0000.0001)     ;
(PID.TID 0000.0001) usingPCoords =  /* use p (or p*) vertical coordinate */
(PID.TID 0000.0001)                   F
(PID.TID 0000.0001)     ;
(PID.TID 0000.0001) usingZCoords =  /* use z (or z*) vertical coordinate */
(PID.TID 0000.0001)                   T
(PID.TID 0000.0001)     ;
(PID.TID 0000.0001) tRef =   /* Reference temperature profile ( oC or K ) */
(PID.TID 0000.0001)    15 @  2.000000000000000E+01              /* K =  1: 15 */
(PID.TID 0000.0001)     ;
(PID.TID 0000.0001) sRef =   /* Reference salinity profile ( psu ) */
(PID.TID 0000.0001)    15 @  3.500000000000000E+01              /* K =  1: 15 */
(PID.TID 0000.0001)     ;
(PID.TID 0000.0001) viscAh  =   /* Lateral eddy viscosity ( m^2/s ) */
(PID.TID 0000.0001)                 5.000000000000000E+05
(PID.TID 0000.0001)     ;
(PID.TID 0000.0001) viscAhMax = /* Maximum lateral eddy viscosity ( m^2/s ) */
(PID.TID 0000.0001)                 1.000000000000000E+21
(PID.TID 0000.0001)     ;
(PID.TID 0000.0001) viscAhGrid = /* Grid dependent lateral eddy viscosity ( non-dim. ) */
(PID.TID 0000.0001)                 0.000000000000000E+00
(PID.TID 0000.0001)     ;
(PID.TID 0000.0001) useFullLeith = /* Use Full Form of Leith Viscosity on/off flag*/
(PID.TID 0000.0001)                   F
(PID.TID 0000.0001)     ;
(PID.TID 0000.0001) useStrainTensionVisc= /* Use StrainTension Form of Viscous Operator flag*/
(PID.TID 0000.0001)                   F
(PID.TID 0000.0001)     ;
(PID.TID 0000.0001) useAreaViscLength = /* Use area for visc length instead of geom. mean*/
(PID.TID 0000.0001)                   F
(PID.TID 0000.0001)     ;
(PID.TID 0000.0001) viscC2leith = /* Leith harmonic visc. factor (on grad(vort),non-dim.) */
(PID.TID 0000.0001)                 0.000000000000000E+00
(PID.TID 0000.0001)     ;
(PID.TID 0000.0001) viscC2leithD = /* Leith harmonic viscosity factor (on grad(div),non-dim.)*/
(PID.TID 0000.0001)                 0.000000000000000E+00
(PID.TID 0000.0001)     ;
(PID.TID 0000.0001) viscC2smag = /* Smagorinsky harmonic viscosity factor (non-dim.) */
(PID.TID 0000.0001)                 0.000000000000000E+00
(PID.TID 0000.0001)     ;
(PID.TID 0000.0001) viscA4  =   /* Lateral biharmonic viscosity ( m^4/s ) */
(PID.TID 0000.0001)                 0.000000000000000E+00
(PID.TID 0000.0001)     ;
(PID.TID 0000.0001) viscA4Max = /* Maximum biharmonic viscosity ( m^2/s ) */
(PID.TID 0000.0001)                 1.000000000000000E+21
(PID.TID 0000.0001)     ;
(PID.TID 0000.0001) viscA4Grid = /* Grid dependent biharmonic viscosity ( non-dim. ) */
(PID.TID 0000.0001)                 0.000000000000000E+00
(PID.TID 0000.0001)     ;
(PID.TID 0000.0001) viscC4leith = /* Leith biharm viscosity factor (on grad(vort), non-dim.)*/
(PID.TID 0000.0001)                 0.000000000000000E+00
(PID.TID 0000.0001)     ;
(PID.TID 0000.0001) viscC4leithD = /* Leith biharm viscosity factor (on grad(div), non-dim.) */
(PID.TID 0000.0001)                 0.000000000000000E+00
(PID.TID 0000.0001)     ;
(PID.TID 0000.0001) viscC4Smag = /* Smagorinsky biharm viscosity factor (non-dim) */
(PID.TID 0000.0001)                 0.000000000000000E+00
(PID.TID 0000.0001)     ;
(PID.TID 0000.0001) no_slip_sides =  /* Viscous BCs: No-slip sides */
(PID.TID 0000.0001)                   T
(PID.TID 0000.0001)     ;
(PID.TID 0000.0001) sideDragFactor = /* side-drag scaling factor (non-dim) */
(PID.TID 0000.0001)                 2.000000000000000E+00
(PID.TID 0000.0001)     ;
(PID.TID 0000.0001) viscArNr = /* vertical profile of vertical viscosity ( m^2/s )*/
(PID.TID 0000.0001)    15 @  1.000000000000000E-03              /* K =  1: 15 */
(PID.TID 0000.0001)     ;
(PID.TID 0000.0001) no_slip_bottom =  /* Viscous BCs: No-slip bottom */
(PID.TID 0000.0001)                   T
(PID.TID 0000.0001)     ;
(PID.TID 0000.0001) bottomDragLinear = /* linear bottom-drag coefficient ( m/s ) */
(PID.TID 0000.0001)                 0.000000000000000E+00
(PID.TID 0000.0001)     ;
(PID.TID 0000.0001) bottomDragQuadratic = /* quadratic bottom-drag coefficient (-) */
(PID.TID 0000.0001)                 0.000000000000000E+00
(PID.TID 0000.0001)     ;
(PID.TID 0000.0001) diffKhT =   /* Laplacian diffusion of heat laterally ( m^2/s ) */
(PID.TID 0000.0001)                 0.000000000000000E+00
(PID.TID 0000.0001)     ;
(PID.TID 0000.0001) diffK4T =   /* Biharmonic diffusion of heat laterally ( m^4/s ) */
(PID.TID 0000.0001)                 0.000000000000000E+00
(PID.TID 0000.0001)     ;
(PID.TID 0000.0001) diffKhS =   /* Laplacian diffusion of salt laterally ( m^2/s ) */
(PID.TID 0000.0001)                 0.000000000000000E+00
(PID.TID 0000.0001)     ;
(PID.TID 0000.0001) diffK4S =   /* Biharmonic diffusion of salt laterally ( m^4/s ) */
(PID.TID 0000.0001)                 0.000000000000000E+00
(PID.TID 0000.0001)     ;
(PID.TID 0000.0001) diffKrNrT = /* vertical profile of vertical diffusion of Temp ( m^2/s )*/
(PID.TID 0000.0001)    15 @  3.000000000000000E-05              /* K =  1: 15 */
(PID.TID 0000.0001)     ;
(PID.TID 0000.0001) diffKrNrS = /* vertical profile of vertical diffusion of Salt ( m^2/s )*/
(PID.TID 0000.0001)    15 @  3.000000000000000E-05              /* K =  1: 15 */
(PID.TID 0000.0001)     ;
(PID.TID 0000.0001) diffKrBL79surf = /* Surface diffusion for Bryan and Lewis 79 ( m^2/s ) */
(PID.TID 0000.0001)                 0.000000000000000E+00
(PID.TID 0000.0001)     ;
(PID.TID 0000.0001) diffKrBL79deep = /* Deep diffusion for Bryan and Lewis 1979 ( m^2/s ) */
(PID.TID 0000.0001)                 0.000000000000000E+00
(PID.TID 0000.0001)     ;
(PID.TID 0000.0001) diffKrBL79scl = /* Depth scale for Bryan and Lewis 1979 ( m ) */
(PID.TID 0000.0001)                 2.000000000000000E+02
(PID.TID 0000.0001)     ;
(PID.TID 0000.0001) diffKrBL79Ho = /* Turning depth for Bryan and Lewis 1979 ( m ) */
(PID.TID 0000.0001)                -2.000000000000000E+03
(PID.TID 0000.0001)     ;
(PID.TID 0000.0001) ivdc_kappa = /* Implicit Vertical Diffusivity for Convection ( m^2/s) */
(PID.TID 0000.0001)                 1.000000000000000E+01
(PID.TID 0000.0001)     ;
(PID.TID 0000.0001) hMixCriteria=  /* Criteria for mixed-layer diagnostic */
(PID.TID 0000.0001)                -8.000000000000000E-01
(PID.TID 0000.0001)     ;
(PID.TID 0000.0001) dRhoSmall =  /* Parameter for mixed-layer diagnostic */
(PID.TID 0000.0001)                 1.000000000000000E-06
(PID.TID 0000.0001)     ;
(PID.TID 0000.0001) hMixSmooth=  /* Smoothing parameter for mixed-layer diagnostic */
(PID.TID 0000.0001)                 0.000000000000000E+00
(PID.TID 0000.0001)     ;
(PID.TID 0000.0001) eosType =  /* Type of Equation of State */
(PID.TID 0000.0001)               'POLY3 '
(PID.TID 0000.0001)     ;
(PID.TID 0000.0001) tAlpha =   /* Linear EOS thermal expansion coefficient ( 1/oC ) */
(PID.TID 0000.0001)                 1.234567000000000E+05
(PID.TID 0000.0001)     ;
(PID.TID 0000.0001) sBeta =   /* Linear EOS haline contraction coefficient ( 1/psu ) */
(PID.TID 0000.0001)                 1.234567000000000E+05
(PID.TID 0000.0001)     ;
(PID.TID 0000.0001)   1  13.497  32.600  24.548  -0.202   0.773  -0.005  -0.002   0.000   0.000   0.000   0.000   0.000
(PID.TID 0000.0001)   2  13.488  32.600  24.819  -0.204   0.773  -0.005  -0.002   0.000   0.000   0.000   0.000   0.000
(PID.TID 0000.0001)   3  13.476  32.600  25.201  -0.205   0.772  -0.005  -0.002   0.000   0.000   0.000   0.000   0.000
(PID.TID 0000.0001)   4   8.469  35.150  28.642  -0.163   0.784  -0.005  -0.002  -0.000   0.000   0.000   0.000   0.000
(PID.TID 0000.0001)   5   8.451  35.150  29.393  -0.167   0.782  -0.005  -0.002  -0.000   0.000   0.000   0.000   0.000
(PID.TID 0000.0001)   6   5.940  34.900  30.563  -0.144   0.786  -0.005  -0.002  -0.001   0.000   0.000   0.000   0.000
(PID.TID 0000.0001)   7   4.425  34.900  31.985  -0.134   0.788  -0.005  -0.003  -0.000   0.000   0.000   0.000   0.000
(PID.TID 0000.0001)   8   2.911  34.750  33.505  -0.125   0.789  -0.006  -0.003  -0.000   0.000   0.000   0.000   0.000
(PID.TID 0000.0001)   9   1.893  34.800  35.341  -0.123   0.789  -0.006  -0.003   0.000   0.000   0.000   0.000   0.000
(PID.TID 0000.0001)  10   1.367  34.800  37.299  -0.129   0.787  -0.006  -0.003   0.000   0.000   0.000   0.000   0.000
(PID.TID 0000.0001)  11   1.327  34.800  39.405  -0.141   0.783  -0.005  -0.003   0.000   0.000   0.000   0.000   0.000
(PID.TID 0000.0001)  12   0.791  34.800  41.788  -0.149   0.780  -0.005  -0.003   0.000   0.000   0.000   0.000   0.000
(PID.TID 0000.0001)  13   0.736  34.750  44.259  -0.164   0.776  -0.005  -0.002   0.000   0.000   0.000   0.000   0.000
(PID.TID 0000.0001)  14   0.186  34.750  47.044  -0.175   0.773  -0.005  -0.002   0.000   0.000   0.000   0.000   0.000
(PID.TID 0000.0001)  15   0.595  34.750  49.835  -0.196   0.767  -0.004  -0.002   0.000   0.000   0.000   0.000   0.000
(PID.TID 0000.0001) rhonil =   /* Reference density ( kg/m^3 ) */
(PID.TID 0000.0001)                 9.998000000000000E+02
(PID.TID 0000.0001)     ;
(PID.TID 0000.0001) rhoConst =   /* Reference density ( kg/m^3 ) */
(PID.TID 0000.0001)                 1.035000000000000E+03
(PID.TID 0000.0001)     ;
(PID.TID 0000.0001) rhoFacC = /* normalized Reference density @ cell-Center (-) */
(PID.TID 0000.0001)    15 @  1.000000000000000E+00              /* K =  1: 15 */
(PID.TID 0000.0001)     ;
(PID.TID 0000.0001) rhoFacF = /* normalized Reference density @ W-Interface (-) */
(PID.TID 0000.0001)    16 @  1.000000000000000E+00              /* K =  1: 16 */
(PID.TID 0000.0001)     ;
(PID.TID 0000.0001) rhoConstFresh =   /* Reference density ( kg/m^3 ) */
(PID.TID 0000.0001)                 1.000000000000000E+03
(PID.TID 0000.0001)     ;
(PID.TID 0000.0001) gravity =   /* Gravitational acceleration ( m/s^2 ) */
(PID.TID 0000.0001)                 9.810000000000000E+00
(PID.TID 0000.0001)     ;
(PID.TID 0000.0001) gBaro =   /* Barotropic gravity ( m/s^2 ) */
(PID.TID 0000.0001)                 9.810000000000000E+00
(PID.TID 0000.0001)     ;
(PID.TID 0000.0001) rotationPeriod =   /* Rotation Period ( s ) */
(PID.TID 0000.0001)                 8.616400000000000E+04
(PID.TID 0000.0001)     ;
(PID.TID 0000.0001) omega =   /* Angular velocity ( rad/s ) */
(PID.TID 0000.0001)                 7.292123516990375E-05
(PID.TID 0000.0001)     ;
(PID.TID 0000.0001) f0 =   /* Reference coriolis parameter ( 1/s ) */
(PID.TID 0000.0001)                 1.000000000000000E-04
(PID.TID 0000.0001)     ;
(PID.TID 0000.0001) beta =   /* Beta ( 1/(m.s) ) */
(PID.TID 0000.0001)                 9.999999999999999E-12
(PID.TID 0000.0001)     ;
(PID.TID 0000.0001) fPrime =   /* Second coriolis parameter ( 1/s ) */
(PID.TID 0000.0001)                 0.000000000000000E+00
(PID.TID 0000.0001)     ;
(PID.TID 0000.0001) rigidLid =   /* Rigid lid on/off flag */
(PID.TID 0000.0001)                   F
(PID.TID 0000.0001)     ;
(PID.TID 0000.0001) implicitFreeSurface =   /* Implicit free surface on/off flag */
(PID.TID 0000.0001)                   T
(PID.TID 0000.0001)     ;
(PID.TID 0000.0001) freeSurfFac =   /* Implicit free surface factor */
(PID.TID 0000.0001)                 1.000000000000000E+00
(PID.TID 0000.0001)     ;
(PID.TID 0000.0001) implicSurfPress =  /* Surface Pressure implicit factor (0-1)*/
(PID.TID 0000.0001)                 1.000000000000000E+00
(PID.TID 0000.0001)     ;
(PID.TID 0000.0001) implicDiv2Dflow =  /* Barot. Flow Div. implicit factor (0-1)*/
(PID.TID 0000.0001)                 1.000000000000000E+00
(PID.TID 0000.0001)     ;
(PID.TID 0000.0001) exactConserv =  /* Exact Volume Conservation on/off flag*/
(PID.TID 0000.0001)                   T
(PID.TID 0000.0001)     ;
(PID.TID 0000.0001) linFSConserveTr = /* Tracer correction for Lin Free Surface on/off flag*/
(PID.TID 0000.0001)                   F
(PID.TID 0000.0001)     ;
(PID.TID 0000.0001) uniformLin_PhiSurf = /* use uniform Bo_surf on/off flag*/
(PID.TID 0000.0001)                   T
(PID.TID 0000.0001)     ;
(PID.TID 0000.0001) hFacMin =   /* minimum partial cell factor (hFac) */
(PID.TID 0000.0001)                 5.000000000000000E-02
(PID.TID 0000.0001)     ;
(PID.TID 0000.0001) hFacMinDr = /* minimum partial cell thickness ( m) */
(PID.TID 0000.0001)                 5.000000000000000E-02
(PID.TID 0000.0001)     ;
(PID.TID 0000.0001) nonlinFreeSurf = /* Non-linear Free Surf. options (-1,0,1,2,3)*/
(PID.TID 0000.0001)                       0
(PID.TID 0000.0001)      -1,0= Off ; 1,2,3= On, 2=+rescale gU,gV, 3=+update cg2d solv.
(PID.TID 0000.0001)     ;
(PID.TID 0000.0001) hFacInf =   /* lower threshold for hFac (nonlinFreeSurf only)*/
(PID.TID 0000.0001)                 2.000000000000000E-01
(PID.TID 0000.0001)     ;
(PID.TID 0000.0001) hFacSup =   /* upper threshold for hFac (nonlinFreeSurf only)*/
(PID.TID 0000.0001)                 2.000000000000000E+00
(PID.TID 0000.0001)     ;
(PID.TID 0000.0001) select_rStar = /* r* Vertical coord. options (=0 r coord.; >0 uses r*)*/
(PID.TID 0000.0001)                       0
(PID.TID 0000.0001)     ;
(PID.TID 0000.0001) selectAddFluid = /* option for mass source/sink of fluid (=0: off) */
(PID.TID 0000.0001)                       0
(PID.TID 0000.0001)     ;
(PID.TID 0000.0001) useRealFreshWaterFlux = /* Real Fresh Water Flux on/off flag*/
(PID.TID 0000.0001)                   T
(PID.TID 0000.0001)     ;
(PID.TID 0000.0001) temp_EvPrRn = /* Temp. of Evap/Prec/R (UNSET=use local T)(oC)*/
(PID.TID 0000.0001)                 1.234567000000000E+05
(PID.TID 0000.0001)     ;
(PID.TID 0000.0001) salt_EvPrRn = /* Salin. of Evap/Prec/R (UNSET=use local S)(psu)*/
(PID.TID 0000.0001)                 0.000000000000000E+00
(PID.TID 0000.0001)     ;
(PID.TID 0000.0001) temp_addMass = /* Temp. of addMass array (UNSET=use local T)(oC)*/
(PID.TID 0000.0001)                 1.234567000000000E+05
(PID.TID 0000.0001)     ;
(PID.TID 0000.0001) salt_addMass = /* Salin. of addMass array (UNSET=use local S)(psu)*/
(PID.TID 0000.0001)                 0.000000000000000E+00
(PID.TID 0000.0001)     ;
(PID.TID 0000.0001) convertFW2Salt = /* convert F.W. Flux to Salt Flux (-1=use local S)(psu)*/
(PID.TID 0000.0001)                -1.000000000000000E+00
(PID.TID 0000.0001)     ;
(PID.TID 0000.0001) use3Dsolver = /* use 3-D pressure solver on/off flag */
(PID.TID 0000.0001)                   F
(PID.TID 0000.0001)     ;
(PID.TID 0000.0001) nonHydrostatic =  /* Non-Hydrostatic on/off flag */
(PID.TID 0000.0001)                   F
(PID.TID 0000.0001)     ;
(PID.TID 0000.0001) nh_Am2 = /* Non-Hydrostatic terms scaling factor */
(PID.TID 0000.0001)                 1.000000000000000E+00
(PID.TID 0000.0001)     ;
(PID.TID 0000.0001) implicitNHPress = /* Non-Hyd Pressure implicit factor (0-1)*/
(PID.TID 0000.0001)                 1.000000000000000E+00
(PID.TID 0000.0001)     ;
(PID.TID 0000.0001) selectNHfreeSurf = /* Non-Hyd (free-)Surface option */
(PID.TID 0000.0001)                       0
(PID.TID 0000.0001)     ;
(PID.TID 0000.0001) quasiHydrostatic = /* Quasi-Hydrostatic on/off flag */
(PID.TID 0000.0001)                   F
(PID.TID 0000.0001)     ;
(PID.TID 0000.0001) momStepping =  /* Momentum equation on/off flag */
(PID.TID 0000.0001)                   T
(PID.TID 0000.0001)     ;
(PID.TID 0000.0001) vectorInvariantMomentum= /* Vector-Invariant Momentum on/off */
(PID.TID 0000.0001)                   F
(PID.TID 0000.0001)     ;
(PID.TID 0000.0001) momAdvection =  /* Momentum advection on/off flag */
(PID.TID 0000.0001)                   T
(PID.TID 0000.0001)     ;
(PID.TID 0000.0001) momViscosity =  /* Momentum viscosity on/off flag */
(PID.TID 0000.0001)                   T
(PID.TID 0000.0001)     ;
(PID.TID 0000.0001) momImplVertAdv= /* Momentum implicit vert. advection on/off*/
(PID.TID 0000.0001)                   F
(PID.TID 0000.0001)     ;
(PID.TID 0000.0001) implicitViscosity = /* Implicit viscosity on/off flag */
(PID.TID 0000.0001)                   F
(PID.TID 0000.0001)     ;
(PID.TID 0000.0001) metricTerms =  /* metric-Terms on/off flag */
(PID.TID 0000.0001)                   T
(PID.TID 0000.0001)     ;
(PID.TID 0000.0001) useNHMTerms = /* Non-Hydrostatic Metric-Terms on/off */
(PID.TID 0000.0001)                   F
(PID.TID 0000.0001)     ;
(PID.TID 0000.0001) selectCoriMap = /* Coriolis Map options (0,1,2,3)*/
(PID.TID 0000.0001)                       2
(PID.TID 0000.0001)     0= f-Plane ; 1= Beta-Plane ; 2= Spherical ; 3= read from file
(PID.TID 0000.0001)     ;
(PID.TID 0000.0001) use3dCoriolis = /* 3-D Coriolis on/off flag */
(PID.TID 0000.0001)                   F
(PID.TID 0000.0001)     ;
(PID.TID 0000.0001) useCoriolis =  /* Coriolis on/off flag */
(PID.TID 0000.0001)                   T
(PID.TID 0000.0001)     ;
(PID.TID 0000.0001) useCDscheme =  /* CD scheme on/off flag */
(PID.TID 0000.0001)                   T
(PID.TID 0000.0001)     ;
(PID.TID 0000.0001) useEnergyConservingCoriolis= /* Flx-Form Coriolis scheme flag */
(PID.TID 0000.0001)                   F
(PID.TID 0000.0001)     ;
(PID.TID 0000.0001) useJamartWetPoints= /* Coriolis WetPoints method flag */
(PID.TID 0000.0001)                   F
(PID.TID 0000.0001)     ;
(PID.TID 0000.0001) useJamartMomAdv= /* V.I Non-linear terms Jamart flag */
(PID.TID 0000.0001)                   F
(PID.TID 0000.0001)     ;
(PID.TID 0000.0001) useAbsVorticity= /* V.I Works with f+zeta in Coriolis */
(PID.TID 0000.0001)                   F
(PID.TID 0000.0001)     ;
(PID.TID 0000.0001) selectVortScheme= /* V.I Scheme selector for Vorticity-Term */
(PID.TID 0000.0001)               123456789
(PID.TID 0000.0001)    = 0 : enstrophy (Shallow-Water Eq.) conserving scheme by Sadourny, JAS 75
(PID.TID 0000.0001)    = 1 : same as 0 with modified hFac
(PID.TID 0000.0001)    = 2 : energy conserving scheme (used by Sadourny in JAS 75 paper)
(PID.TID 0000.0001)    = 3 : energy (general) and enstrophy (2D, nonDiv.) conserving scheme
(PID.TID 0000.0001)          from Sadourny (Burridge & Haseler, ECMWF Rep.4, 1977)
(PID.TID 0000.0001)     ;
(PID.TID 0000.0001) upwindVorticity= /* V.I Upwind bias vorticity flag */
(PID.TID 0000.0001)                   F
(PID.TID 0000.0001)     ;
(PID.TID 0000.0001) highOrderVorticity= /* V.I High order vort. advect. flag */
(PID.TID 0000.0001)                   F
(PID.TID 0000.0001)     ;
(PID.TID 0000.0001) upwindShear= /* V.I Upwind vertical Shear advection flag */
(PID.TID 0000.0001)                   F
(PID.TID 0000.0001)     ;
(PID.TID 0000.0001) selectKEscheme= /* V.I Kinetic Energy scheme selector */
(PID.TID 0000.0001)                       0
(PID.TID 0000.0001)     ;
(PID.TID 0000.0001) momForcing =  /* Momentum forcing on/off flag */
(PID.TID 0000.0001)                   T
(PID.TID 0000.0001)     ;
(PID.TID 0000.0001) momPressureForcing =  /* Momentum pressure term on/off flag */
(PID.TID 0000.0001)                   T
(PID.TID 0000.0001)     ;
(PID.TID 0000.0001) implicitIntGravWave= /* Implicit Internal Gravity Wave flag */
(PID.TID 0000.0001)                   F
(PID.TID 0000.0001)     ;
(PID.TID 0000.0001) staggerTimeStep =   /* Stagger time stepping on/off flag */
(PID.TID 0000.0001)                   F
(PID.TID 0000.0001)     ;
(PID.TID 0000.0001) multiDimAdvection =   /* enable/disable Multi-Dim Advection */
(PID.TID 0000.0001)                   T
(PID.TID 0000.0001)     ;
(PID.TID 0000.0001) useMultiDimAdvec =   /* Multi-Dim Advection is/is-not used */
(PID.TID 0000.0001)                   F
(PID.TID 0000.0001)     ;
(PID.TID 0000.0001) implicitDiffusion = /* Implicit Diffusion on/off flag */
(PID.TID 0000.0001)                   T
(PID.TID 0000.0001)     ;
(PID.TID 0000.0001) tempStepping =  /* Temperature equation on/off flag */
(PID.TID 0000.0001)                   T
(PID.TID 0000.0001)     ;
(PID.TID 0000.0001) tempAdvection=  /* Temperature advection on/off flag */
(PID.TID 0000.0001)                   T
(PID.TID 0000.0001)     ;
(PID.TID 0000.0001) tempImplVertAdv = /* Temp. implicit vert. advection on/off */
(PID.TID 0000.0001)                   F
(PID.TID 0000.0001)     ;
(PID.TID 0000.0001) tempForcing  =  /* Temperature forcing on/off flag */
(PID.TID 0000.0001)                   T
(PID.TID 0000.0001)     ;
(PID.TID 0000.0001) tempIsActiveTr = /* Temp. is a dynamically Active Tracer */
(PID.TID 0000.0001)                   T
(PID.TID 0000.0001)     ;
(PID.TID 0000.0001) saltStepping =  /* Salinity equation on/off flag */
(PID.TID 0000.0001)                   T
(PID.TID 0000.0001)     ;
(PID.TID 0000.0001) saltAdvection=  /* Salinity advection on/off flag */
(PID.TID 0000.0001)                   T
(PID.TID 0000.0001)     ;
(PID.TID 0000.0001) saltImplVertAdv = /* Sali. implicit vert. advection on/off */
(PID.TID 0000.0001)                   F
(PID.TID 0000.0001)     ;
(PID.TID 0000.0001) saltForcing  =  /* Salinity forcing on/off flag */
(PID.TID 0000.0001)                   T
(PID.TID 0000.0001)     ;
(PID.TID 0000.0001) saltIsActiveTr = /* Salt  is a dynamically Active Tracer */
(PID.TID 0000.0001)                   T
(PID.TID 0000.0001)     ;
(PID.TID 0000.0001)  readBinaryPrec = /* Precision used for reading binary files */
(PID.TID 0000.0001)                      32
(PID.TID 0000.0001)     ;
(PID.TID 0000.0001) writeBinaryPrec = /* Precision used for writing binary files */
(PID.TID 0000.0001)                      32
(PID.TID 0000.0001)     ;
(PID.TID 0000.0001)  globalFiles = /* write "global" (=not per tile) files */
(PID.TID 0000.0001)                   F
(PID.TID 0000.0001)     ;
(PID.TID 0000.0001)  useSingleCpuIO = /* only master MPI process does I/O */
(PID.TID 0000.0001)                   F
(PID.TID 0000.0001)     ;
(PID.TID 0000.0001) /* debLev[*]  : level of debug & auxiliary message printing */
(PID.TID 0000.0001) debLevZero =  0 ; /* level of disabled aux. msg printing */
(PID.TID 0000.0001)    debLevA =  1 ; /* level of minimum  aux. msg printing */
(PID.TID 0000.0001)    debLevB =  2 ; /* level of low aux. print (report read-file opening)*/
(PID.TID 0000.0001)    debLevC =  3 ; /* level of moderate debug prt (most pkgs debug msg) */
(PID.TID 0000.0001)    debLevD =  4 ; /* level of enhanced debug prt (add DEBUG_STATS prt) */
(PID.TID 0000.0001)    debLevE =  5 ; /* level of extensive debug printing */
(PID.TID 0000.0001) debugLevel =  /* select debug printing level */
(PID.TID 0000.0001)                       2
(PID.TID 0000.0001)     ;
(PID.TID 0000.0001) //
(PID.TID 0000.0001) // Elliptic solver(s) paramters ( PARM02 in namelist )
(PID.TID 0000.0001) //
(PID.TID 0000.0001) cg2dMaxIters =   /* Upper limit on 2d con. grad iterations  */
(PID.TID 0000.0001)                     500
(PID.TID 0000.0001)     ;
(PID.TID 0000.0001) cg2dChkResFreq =   /* 2d con. grad convergence test frequency */
(PID.TID 0000.0001)                       1
(PID.TID 0000.0001)     ;
(PID.TID 0000.0001) cg2dTargetResidual =   /* 2d con. grad target residual  */
(PID.TID 0000.0001)                 1.000000000000000E-13
(PID.TID 0000.0001)     ;
(PID.TID 0000.0001) cg2dTargetResWunit =   /* CG2d target residual [W units] */
(PID.TID 0000.0001)                -1.000000000000000E+00
(PID.TID 0000.0001)     ;
(PID.TID 0000.0001) cg2dPreCondFreq =   /* Freq. for updating cg2d preconditioner */
(PID.TID 0000.0001)                       1
(PID.TID 0000.0001)     ;
(PID.TID 0000.0001) useSRCGSolver =  /* use single reduction CG solver(s) */
(PID.TID 0000.0001)                   F
(PID.TID 0000.0001)     ;
(PID.TID 0000.0001) printResidualFreq = /* Freq. for printing CG residual */
(PID.TID 0000.0001)                       0
(PID.TID 0000.0001)     ;
(PID.TID 0000.0001) //
(PID.TID 0000.0001) // Time stepping paramters ( PARM03 in namelist )
(PID.TID 0000.0001) //
(PID.TID 0000.0001) deltaTmom =   /* Momentum equation timestep ( s ) */
(PID.TID 0000.0001)                 1.200000000000000E+03
(PID.TID 0000.0001)     ;
(PID.TID 0000.0001) deltaTfreesurf = /* FreeSurface equation timestep ( s ) */
(PID.TID 0000.0001)                 4.320000000000000E+04
(PID.TID 0000.0001)     ;
(PID.TID 0000.0001) dTtracerLev =  /* Tracer equation timestep ( s ) */
(PID.TID 0000.0001)    15 @  4.320000000000000E+04              /* K =  1: 15 */
(PID.TID 0000.0001)     ;
(PID.TID 0000.0001) deltaTClock  =   /* Model clock timestep ( s ) */
(PID.TID 0000.0001)                 4.320000000000000E+04
(PID.TID 0000.0001)     ;
(PID.TID 0000.0001) cAdjFreq =   /* Convective adjustment interval ( s ) */
(PID.TID 0000.0001)                 0.000000000000000E+00
(PID.TID 0000.0001)     ;
(PID.TID 0000.0001) momForcingOutAB = /* =1: take Momentum Forcing out of Adams-Bash. stepping */
(PID.TID 0000.0001)                       0
(PID.TID 0000.0001)     ;
(PID.TID 0000.0001) tracForcingOutAB = /* =1: take T,S,pTr Forcing out of Adams-Bash. stepping */
(PID.TID 0000.0001)                       0
(PID.TID 0000.0001)     ;
(PID.TID 0000.0001) momDissip_In_AB = /* put Dissipation Tendency in Adams-Bash. stepping */
(PID.TID 0000.0001)                   T
(PID.TID 0000.0001)     ;
(PID.TID 0000.0001) doAB_onGtGs = /* apply AB on Tendencies (rather than on T,S)*/
(PID.TID 0000.0001)                   T
(PID.TID 0000.0001)     ;
(PID.TID 0000.0001) abEps =   /* Adams-Bashforth-2 stabilizing weight */
(PID.TID 0000.0001)                 1.000000000000000E-01
(PID.TID 0000.0001)     ;
(PID.TID 0000.0001) tauCD =   /* CD coupling time-scale ( s ) */
(PID.TID 0000.0001)                 3.214280000000000E+05
(PID.TID 0000.0001)     ;
(PID.TID 0000.0001) rCD =   /* Normalised CD coupling parameter */
(PID.TID 0000.0001)                 9.962666600296178E-01
(PID.TID 0000.0001)     ;
(PID.TID 0000.0001) epsAB_CD = /* AB-2 stabilizing weight for CD-scheme*/
(PID.TID 0000.0001)                 1.000000000000000E-01
(PID.TID 0000.0001)     ;
(PID.TID 0000.0001) pickupStrictlyMatch= /* stop if pickup do not strictly match */
(PID.TID 0000.0001)                   T
(PID.TID 0000.0001)     ;
(PID.TID 0000.0001) nIter0   =   /* Run starting timestep number */
(PID.TID 0000.0001)                       0
(PID.TID 0000.0001)     ;
(PID.TID 0000.0001) nTimeSteps = /* Number of timesteps */
(PID.TID 0000.0001)                      20
(PID.TID 0000.0001)     ;
(PID.TID 0000.0001) nEndIter =   /* Run ending timestep number */
(PID.TID 0000.0001)                      20
(PID.TID 0000.0001)     ;
(PID.TID 0000.0001) baseTime =   /* Model base time ( s ) */
(PID.TID 0000.0001)                 0.000000000000000E+00
(PID.TID 0000.0001)     ;
(PID.TID 0000.0001) startTime =  /* Run start time ( s ) */
(PID.TID 0000.0001)                 0.000000000000000E+00
(PID.TID 0000.0001)     ;
(PID.TID 0000.0001) endTime  =   /* Integration ending time ( s ) */
(PID.TID 0000.0001)                 8.640000000000000E+05
(PID.TID 0000.0001)     ;
(PID.TID 0000.0001) pChkPtFreq = /* Permanent restart/pickup file interval ( s ) */
(PID.TID 0000.0001)                 3.110400000000000E+08
(PID.TID 0000.0001)     ;
(PID.TID 0000.0001) chkPtFreq  = /* Rolling restart/pickup file interval ( s ) */
(PID.TID 0000.0001)                 0.000000000000000E+00
(PID.TID 0000.0001)     ;
(PID.TID 0000.0001) pickup_write_mdsio =   /* Model IO flag. */
(PID.TID 0000.0001)                   T
(PID.TID 0000.0001)     ;
(PID.TID 0000.0001) pickup_read_mdsio =   /* Model IO flag. */
(PID.TID 0000.0001)                   T
(PID.TID 0000.0001)     ;
(PID.TID 0000.0001) pickup_write_immed =   /* Model IO flag. */
(PID.TID 0000.0001)                   F
(PID.TID 0000.0001)     ;
(PID.TID 0000.0001) writePickupAtEnd =   /* Model IO flag. */
(PID.TID 0000.0001)                   T
(PID.TID 0000.0001)     ;
(PID.TID 0000.0001) dumpFreq =   /* Model state write out interval ( s ). */
(PID.TID 0000.0001)                 8.640000000000000E+05
(PID.TID 0000.0001)     ;
(PID.TID 0000.0001) dumpInitAndLast= /* write out Initial & Last iter. model state */
(PID.TID 0000.0001)                   T
(PID.TID 0000.0001)     ;
(PID.TID 0000.0001) snapshot_mdsio =   /* Model IO flag. */
(PID.TID 0000.0001)                   T
(PID.TID 0000.0001)     ;
(PID.TID 0000.0001) monitorFreq =   /* Monitor output interval ( s ). */
(PID.TID 0000.0001)                 1.000000000000000E+00
(PID.TID 0000.0001)     ;
(PID.TID 0000.0001) monitorSelect = /* select group of variables to monitor */
(PID.TID 0000.0001)                       3
(PID.TID 0000.0001)     ;
(PID.TID 0000.0001) monitor_stdio =   /* Model IO flag. */
(PID.TID 0000.0001)                   T
(PID.TID 0000.0001)     ;
(PID.TID 0000.0001) externForcingPeriod =   /* forcing period (s) */
(PID.TID 0000.0001)                 0.000000000000000E+00
(PID.TID 0000.0001)     ;
(PID.TID 0000.0001) externForcingCycle =   /* period of the cyle (s). */
(PID.TID 0000.0001)                 0.000000000000000E+00
(PID.TID 0000.0001)     ;
(PID.TID 0000.0001) tauThetaClimRelax =   /* relaxation time scale (s) */
(PID.TID 0000.0001)                 5.184000000000000E+06
(PID.TID 0000.0001)     ;
(PID.TID 0000.0001) tauSaltClimRelax =   /* relaxation time scale (s) */
(PID.TID 0000.0001)                 1.555200000000000E+07
(PID.TID 0000.0001)     ;
(PID.TID 0000.0001) latBandClimRelax =   /* max. Lat. where relaxation */
(PID.TID 0000.0001)                 1.800000000000000E+02
(PID.TID 0000.0001)     ;
(PID.TID 0000.0001) //
(PID.TID 0000.0001) // Gridding paramters ( PARM04 in namelist )
(PID.TID 0000.0001) //
(PID.TID 0000.0001) usingCartesianGrid = /* Cartesian coordinates flag ( True/False ) */
(PID.TID 0000.0001)                   F
(PID.TID 0000.0001)     ;
(PID.TID 0000.0001) usingCylindricalGrid = /* Cylindrical coordinates flag ( True/False ) */
(PID.TID 0000.0001)                   F
(PID.TID 0000.0001)     ;
(PID.TID 0000.0001) usingSphericalPolarGrid = /* Spherical coordinates flag ( True/False ) */
(PID.TID 0000.0001)                   T
(PID.TID 0000.0001)     ;
(PID.TID 0000.0001) usingCurvilinearGrid = /* Curvilinear coordinates flag ( True/False ) */
(PID.TID 0000.0001)                   F
(PID.TID 0000.0001)     ;
(PID.TID 0000.0001) selectSigmaCoord = /* Hybrid-Sigma Vert. Coordinate option */
(PID.TID 0000.0001)                       0
(PID.TID 0000.0001)     ;
(PID.TID 0000.0001) Ro_SeaLevel = /* r(1) ( units of r ==  m ) */
(PID.TID 0000.0001)                 0.000000000000000E+00
(PID.TID 0000.0001)     ;
(PID.TID 0000.0001) rSigmaBnd = /* r/sigma transition ( units of r ==  m ) */
(PID.TID 0000.0001)                 1.234567000000000E+05
(PID.TID 0000.0001)     ;
(PID.TID 0000.0001) rkSign =   /* index orientation relative to vertical coordinate */
(PID.TID 0000.0001)                -1.000000000000000E+00
(PID.TID 0000.0001)     ;
(PID.TID 0000.0001) gravitySign = /* gravity orientation relative to vertical coordinate */
(PID.TID 0000.0001)                -1.000000000000000E+00
(PID.TID 0000.0001)     ;
(PID.TID 0000.0001) mass2rUnit = /* convert mass per unit area [kg/m2] to r-units [m] */
(PID.TID 0000.0001)                 9.661835748792270E-04
(PID.TID 0000.0001)     ;
(PID.TID 0000.0001) rUnit2mass = /* convert r-units [m] to mass per unit area [kg/m2] */
(PID.TID 0000.0001)                 1.035000000000000E+03
(PID.TID 0000.0001)     ;
(PID.TID 0000.0001) drC =   /* C spacing ( units of r ) */
(PID.TID 0000.0001)                 2.500000000000000E+01,      /* K =  1 */
(PID.TID 0000.0001)                 6.000000000000000E+01,      /* K =  2 */
(PID.TID 0000.0001)                 8.500000000000000E+01,      /* K =  3 */
(PID.TID 0000.0001)                 1.200000000000000E+02,      /* K =  4 */
(PID.TID 0000.0001)                 1.650000000000000E+02,      /* K =  5 */
(PID.TID 0000.0001)                 2.150000000000000E+02,      /* K =  6 */
(PID.TID 0000.0001)                 2.650000000000000E+02,      /* K =  7 */
(PID.TID 0000.0001)                 3.150000000000000E+02,      /* K =  8 */
(PID.TID 0000.0001)                 3.650000000000000E+02,      /* K =  9 */
(PID.TID 0000.0001)                 4.150000000000000E+02,      /* K = 10 */
(PID.TID 0000.0001)                 4.650000000000000E+02,      /* K = 11 */
(PID.TID 0000.0001)                 5.150000000000000E+02,      /* K = 12 */
(PID.TID 0000.0001)                 5.650000000000000E+02,      /* K = 13 */
(PID.TID 0000.0001)                 6.150000000000000E+02,      /* K = 14 */
(PID.TID 0000.0001)                 6.650000000000000E+02       /* K = 15 */
(PID.TID 0000.0001)     ;
(PID.TID 0000.0001) drF =   /* W spacing ( units of r ) */
(PID.TID 0000.0001)                 5.000000000000000E+01,      /* K =  1 */
(PID.TID 0000.0001)                 7.000000000000000E+01,      /* K =  2 */
(PID.TID 0000.0001)                 1.000000000000000E+02,      /* K =  3 */
(PID.TID 0000.0001)                 1.400000000000000E+02,      /* K =  4 */
(PID.TID 0000.0001)                 1.900000000000000E+02,      /* K =  5 */
(PID.TID 0000.0001)                 2.400000000000000E+02,      /* K =  6 */
(PID.TID 0000.0001)                 2.900000000000000E+02,      /* K =  7 */
(PID.TID 0000.0001)                 3.400000000000000E+02,      /* K =  8 */
(PID.TID 0000.0001)                 3.900000000000000E+02,      /* K =  9 */
(PID.TID 0000.0001)                 4.400000000000000E+02,      /* K = 10 */
(PID.TID 0000.0001)                 4.900000000000000E+02,      /* K = 11 */
(PID.TID 0000.0001)                 5.400000000000000E+02,      /* K = 12 */
(PID.TID 0000.0001)                 5.900000000000000E+02,      /* K = 13 */
(PID.TID 0000.0001)                 6.400000000000000E+02,      /* K = 14 */
(PID.TID 0000.0001)                 6.900000000000000E+02       /* K = 15 */
(PID.TID 0000.0001)     ;
(PID.TID 0000.0001) delX = /* U spacing ( m - cartesian, degrees - spherical ) */
(PID.TID 0000.0001)    90 @  4.000000000000000E+00              /* I =  1: 90 */
(PID.TID 0000.0001)     ;
(PID.TID 0000.0001) delY = /* V spacing ( m - cartesian, degrees - spherical ) */
(PID.TID 0000.0001)    40 @  4.000000000000000E+00              /* J =  1: 40 */
(PID.TID 0000.0001)     ;
(PID.TID 0000.0001) xgOrigin = /* X-axis origin of West  edge (cartesian: m, lat-lon: deg.) */
(PID.TID 0000.0001)                 0.000000000000000E+00
(PID.TID 0000.0001)     ;
(PID.TID 0000.0001) ygOrigin = /* Y-axis origin of South edge (cartesian: m, lat-lon: deg.) */
(PID.TID 0000.0001)                -8.000000000000000E+01
(PID.TID 0000.0001)     ;
(PID.TID 0000.0001) rSphere =  /* Radius ( ignored - cartesian, m - spherical ) */
(PID.TID 0000.0001)                 6.370000000000000E+06
(PID.TID 0000.0001)     ;
(PID.TID 0000.0001) deepAtmosphere = /* Deep/Shallow Atmosphere flag (True/False) */
(PID.TID 0000.0001)                   F
(PID.TID 0000.0001)     ;
(PID.TID 0000.0001) xC =  /* xC(:,1,:,1) : P-point X coord ( deg. or m if cartesian) */
(PID.TID 0000.0001)                 2.000000000000000E+00,      /* I =  1 */
(PID.TID 0000.0001)                 6.000000000000000E+00,      /* I =  2 */
(PID.TID 0000.0001)                 1.000000000000000E+01,      /* I =  3 */
(PID.TID 0000.0001)      . . .
(PID.TID 0000.0001)                 8.200000000000000E+01,      /* I = 21 */
(PID.TID 0000.0001)                 8.600000000000000E+01,      /* I = 22 */
(PID.TID 0000.0001)                 9.000000000000000E+01,      /* I = 23 */
(PID.TID 0000.0001)                 9.400000000000000E+01,      /* I = 24 */
(PID.TID 0000.0001)                 9.800000000000000E+01,      /* I = 25 */
(PID.TID 0000.0001)                 1.020000000000000E+02,      /* I = 26 */
(PID.TID 0000.0001)      . . .
(PID.TID 0000.0001)                 1.700000000000000E+02,      /* I = 43 */
(PID.TID 0000.0001)                 1.740000000000000E+02,      /* I = 44 */
(PID.TID 0000.0001)                 1.780000000000000E+02,      /* I = 45 */
(PID.TID 0000.0001)                 1.820000000000000E+02,      /* I = 46 */
(PID.TID 0000.0001)                 1.860000000000000E+02,      /* I = 47 */
(PID.TID 0000.0001)                 1.900000000000000E+02,      /* I = 48 */
(PID.TID 0000.0001)      . . .
(PID.TID 0000.0001)                 2.580000000000000E+02,      /* I = 65 */
(PID.TID 0000.0001)                 2.620000000000000E+02,      /* I = 66 */
(PID.TID 0000.0001)                 2.660000000000000E+02,      /* I = 67 */
(PID.TID 0000.0001)                 2.700000000000000E+02,      /* I = 68 */
(PID.TID 0000.0001)                 2.740000000000000E+02,      /* I = 69 */
(PID.TID 0000.0001)                 2.780000000000000E+02,      /* I = 70 */
(PID.TID 0000.0001)      . . .
(PID.TID 0000.0001)                 3.500000000000000E+02,      /* I = 88 */
(PID.TID 0000.0001)                 3.540000000000000E+02,      /* I = 89 */
(PID.TID 0000.0001)                 3.580000000000000E+02       /* I = 90 */
(PID.TID 0000.0001)     ;
(PID.TID 0000.0001) yC =  /* yC(1,:,1,:) : P-point Y coord ( deg. or m if cartesian) */
(PID.TID 0000.0001)                -7.800000000000000E+01,      /* J =  1 */
(PID.TID 0000.0001)                -7.400000000000000E+01,      /* J =  2 */
(PID.TID 0000.0001)                -7.000000000000000E+01,      /* J =  3 */
(PID.TID 0000.0001)                -6.600000000000000E+01,      /* J =  4 */
(PID.TID 0000.0001)                -6.200000000000000E+01,      /* J =  5 */
(PID.TID 0000.0001)                -5.800000000000000E+01,      /* J =  6 */
(PID.TID 0000.0001)                -5.400000000000000E+01,      /* J =  7 */
(PID.TID 0000.0001)                -5.000000000000000E+01,      /* J =  8 */
(PID.TID 0000.0001)                -4.600000000000000E+01,      /* J =  9 */
(PID.TID 0000.0001)                -4.200000000000000E+01,      /* J = 10 */
(PID.TID 0000.0001)                -3.800000000000000E+01,      /* J = 11 */
(PID.TID 0000.0001)                -3.400000000000000E+01,      /* J = 12 */
(PID.TID 0000.0001)                -3.000000000000000E+01,      /* J = 13 */
(PID.TID 0000.0001)                -2.600000000000000E+01,      /* J = 14 */
(PID.TID 0000.0001)                -2.200000000000000E+01,      /* J = 15 */
(PID.TID 0000.0001)                -1.800000000000000E+01,      /* J = 16 */
(PID.TID 0000.0001)                -1.400000000000000E+01,      /* J = 17 */
(PID.TID 0000.0001)                -1.000000000000000E+01,      /* J = 18 */
(PID.TID 0000.0001)                -6.000000000000000E+00,      /* J = 19 */
(PID.TID 0000.0001)                -2.000000000000000E+00,      /* J = 20 */
(PID.TID 0000.0001)                 2.000000000000000E+00,      /* J = 21 */
(PID.TID 0000.0001)                 6.000000000000000E+00,      /* J = 22 */
(PID.TID 0000.0001)                 1.000000000000000E+01,      /* J = 23 */
(PID.TID 0000.0001)                 1.400000000000000E+01,      /* J = 24 */
(PID.TID 0000.0001)                 1.800000000000000E+01,      /* J = 25 */
(PID.TID 0000.0001)                 2.200000000000000E+01,      /* J = 26 */
(PID.TID 0000.0001)                 2.600000000000000E+01,      /* J = 27 */
(PID.TID 0000.0001)                 3.000000000000000E+01,      /* J = 28 */
(PID.TID 0000.0001)                 3.400000000000000E+01,      /* J = 29 */
(PID.TID 0000.0001)                 3.800000000000000E+01,      /* J = 30 */
(PID.TID 0000.0001)                 4.200000000000000E+01,      /* J = 31 */
(PID.TID 0000.0001)                 4.600000000000000E+01,      /* J = 32 */
(PID.TID 0000.0001)                 5.000000000000000E+01,      /* J = 33 */
(PID.TID 0000.0001)                 5.400000000000000E+01,      /* J = 34 */
(PID.TID 0000.0001)                 5.800000000000000E+01,      /* J = 35 */
(PID.TID 0000.0001)                 6.200000000000000E+01,      /* J = 36 */
(PID.TID 0000.0001)                 6.600000000000000E+01,      /* J = 37 */
(PID.TID 0000.0001)                 7.000000000000000E+01,      /* J = 38 */
(PID.TID 0000.0001)                 7.400000000000000E+01,      /* J = 39 */
(PID.TID 0000.0001)                 7.800000000000000E+01       /* J = 40 */
(PID.TID 0000.0001)     ;
(PID.TID 0000.0001) rcoord = /* P-point R coordinate (  units of r ) */
(PID.TID 0000.0001)                -2.500000000000000E+01,      /* K =  1 */
(PID.TID 0000.0001)                -8.500000000000000E+01,      /* K =  2 */
(PID.TID 0000.0001)                -1.700000000000000E+02,      /* K =  3 */
(PID.TID 0000.0001)                -2.900000000000000E+02,      /* K =  4 */
(PID.TID 0000.0001)                -4.550000000000000E+02,      /* K =  5 */
(PID.TID 0000.0001)                -6.700000000000000E+02,      /* K =  6 */
(PID.TID 0000.0001)                -9.350000000000000E+02,      /* K =  7 */
(PID.TID 0000.0001)                -1.250000000000000E+03,      /* K =  8 */
(PID.TID 0000.0001)                -1.615000000000000E+03,      /* K =  9 */
(PID.TID 0000.0001)                -2.030000000000000E+03,      /* K = 10 */
(PID.TID 0000.0001)                -2.495000000000000E+03,      /* K = 11 */
(PID.TID 0000.0001)                -3.010000000000000E+03,      /* K = 12 */
(PID.TID 0000.0001)                -3.575000000000000E+03,      /* K = 13 */
(PID.TID 0000.0001)                -4.190000000000000E+03,      /* K = 14 */
(PID.TID 0000.0001)                -4.855000000000000E+03       /* K = 15 */
(PID.TID 0000.0001)     ;
(PID.TID 0000.0001) rF =   /* W-Interf. R coordinate (  units of r ) */
(PID.TID 0000.0001)                 0.000000000000000E+00,      /* K =  1 */
(PID.TID 0000.0001)                -5.000000000000000E+01,      /* K =  2 */
(PID.TID 0000.0001)                -1.200000000000000E+02,      /* K =  3 */
(PID.TID 0000.0001)                -2.200000000000000E+02,      /* K =  4 */
(PID.TID 0000.0001)                -3.600000000000000E+02,      /* K =  5 */
(PID.TID 0000.0001)                -5.500000000000000E+02,      /* K =  6 */
(PID.TID 0000.0001)                -7.900000000000000E+02,      /* K =  7 */
(PID.TID 0000.0001)                -1.080000000000000E+03,      /* K =  8 */
(PID.TID 0000.0001)                -1.420000000000000E+03,      /* K =  9 */
(PID.TID 0000.0001)                -1.810000000000000E+03,      /* K = 10 */
(PID.TID 0000.0001)                -2.250000000000000E+03,      /* K = 11 */
(PID.TID 0000.0001)                -2.740000000000000E+03,      /* K = 12 */
(PID.TID 0000.0001)                -3.280000000000000E+03,      /* K = 13 */
(PID.TID 0000.0001)                -3.870000000000000E+03,      /* K = 14 */
(PID.TID 0000.0001)                -4.510000000000000E+03,      /* K = 15 */
(PID.TID 0000.0001)                -5.200000000000000E+03       /* K = 16 */
(PID.TID 0000.0001)     ;
(PID.TID 0000.0001) deepFacC = /* deep-model grid factor @ cell-Center (-) */
(PID.TID 0000.0001)    15 @  1.000000000000000E+00              /* K =  1: 15 */
(PID.TID 0000.0001)     ;
(PID.TID 0000.0001) deepFacF = /* deep-model grid factor @ W-Interface (-) */
(PID.TID 0000.0001)    16 @  1.000000000000000E+00              /* K =  1: 16 */
(PID.TID 0000.0001)     ;
(PID.TID 0000.0001) rVel2wUnit = /* convert units: rVel -> wSpeed (=1 if z-coord)*/
(PID.TID 0000.0001)    16 @  1.000000000000000E+00              /* K =  1: 16 */
(PID.TID 0000.0001)     ;
(PID.TID 0000.0001) wUnit2rVel = /* convert units: wSpeed -> rVel (=1 if z-coord)*/
(PID.TID 0000.0001)    16 @  1.000000000000000E+00              /* K =  1: 16 */
(PID.TID 0000.0001)     ;
(PID.TID 0000.0001) dBdrRef = /* Vertical grad. of reference buoyancy [(m/s/r)^2] */
(PID.TID 0000.0001)    15 @  0.000000000000000E+00              /* K =  1: 15 */
(PID.TID 0000.0001)     ;
(PID.TID 0000.0001) rotateGrid = /* use rotated grid ( True/False ) */
(PID.TID 0000.0001)                   F
(PID.TID 0000.0001)     ;
(PID.TID 0000.0001) phiEuler = /* Euler angle, rotation about original z-coordinate [rad] */
(PID.TID 0000.0001)                 0.000000000000000E+00
(PID.TID 0000.0001)     ;
(PID.TID 0000.0001) thetaEuler = /* Euler angle, rotation about new x-coordinate [rad] */
(PID.TID 0000.0001)                 0.000000000000000E+00
(PID.TID 0000.0001)     ;
(PID.TID 0000.0001) psiEuler = /* Euler angle, rotation about new z-coordinate [rad] */
(PID.TID 0000.0001)                 0.000000000000000E+00
(PID.TID 0000.0001)     ;
(PID.TID 0000.0001) dxF =  /* dxF(:,1,:,1) ( units: m ) */
(PID.TID 0000.0001)    90 @  9.246038586187513E+04              /* I =  1: 90 */
(PID.TID 0000.0001)     ;
(PID.TID 0000.0001) dxF =  /* dxF(1,:,1,:) ( units: m ) */
(PID.TID 0000.0001)                 9.246038586187513E+04,      /* J =  1 */
(PID.TID 0000.0001)                 1.225786591246834E+05,      /* J =  2 */
(PID.TID 0000.0001)                 1.520997414818001E+05,      /* J =  3 */
(PID.TID 0000.0001)                 1.808798091874300E+05,      /* J =  4 */
(PID.TID 0000.0001)                 2.087786486446736E+05,      /* J =  5 */
(PID.TID 0000.0001)                 2.356603395120765E+05,      /* J =  6 */
(PID.TID 0000.0001)                 2.613939168938713E+05,      /* J =  7 */
(PID.TID 0000.0001)                 2.858540093877838E+05,      /* J =  8 */
(PID.TID 0000.0001)                 3.089214498819034E+05,      /* J =  9 */
(PID.TID 0000.0001)                 3.304838561248741E+05,      /* J = 10 */
(PID.TID 0000.0001)                 3.504361782409254E+05,      /* J = 11 */
(PID.TID 0000.0001)                 3.686812105223082E+05,      /* J = 12 */
(PID.TID 0000.0001)                 3.851300650057323E+05,      /* J = 13 */
(PID.TID 0000.0001)                 3.997026045255871E+05,      /* J = 14 */
(PID.TID 0000.0001)                 4.123278331341585E+05,      /* J = 15 */
(PID.TID 0000.0001)                 4.229442419867491E+05,      /* J = 16 */
(PID.TID 0000.0001)                 4.315001090065870E+05,      /* J = 17 */
(PID.TID 0000.0001)                 4.379537508695838E+05,      /* J = 18 */
(PID.TID 0000.0001)                 4.422737260813012E+05,      /* J = 19 */
(PID.TID 0000.0001)     2 @  4.444389881567502E+05,             /* J = 20: 21 */
(PID.TID 0000.0001)                 4.422737260813012E+05,      /* J = 22 */
(PID.TID 0000.0001)                 4.379537508695838E+05,      /* J = 23 */
(PID.TID 0000.0001)                 4.315001090065870E+05,      /* J = 24 */
(PID.TID 0000.0001)                 4.229442419867491E+05,      /* J = 25 */
(PID.TID 0000.0001)                 4.123278331341585E+05,      /* J = 26 */
(PID.TID 0000.0001)                 3.997026045255871E+05,      /* J = 27 */
(PID.TID 0000.0001)                 3.851300650057323E+05,      /* J = 28 */
(PID.TID 0000.0001)                 3.686812105223082E+05,      /* J = 29 */
(PID.TID 0000.0001)                 3.504361782409254E+05,      /* J = 30 */
(PID.TID 0000.0001)                 3.304838561248741E+05,      /* J = 31 */
(PID.TID 0000.0001)                 3.089214498819034E+05,      /* J = 32 */
(PID.TID 0000.0001)                 2.858540093877838E+05,      /* J = 33 */
(PID.TID 0000.0001)                 2.613939168938713E+05,      /* J = 34 */
(PID.TID 0000.0001)                 2.356603395120765E+05,      /* J = 35 */
(PID.TID 0000.0001)                 2.087786486446736E+05,      /* J = 36 */
(PID.TID 0000.0001)                 1.808798091874300E+05,      /* J = 37 */
(PID.TID 0000.0001)                 1.520997414818001E+05,      /* J = 38 */
(PID.TID 0000.0001)                 1.225786591246834E+05,      /* J = 39 */
(PID.TID 0000.0001)                 9.246038586187513E+04       /* J = 40 */
(PID.TID 0000.0001)     ;
(PID.TID 0000.0001) dyF =  /* dyF(:,1,:,1) ( units: m ) */
(PID.TID 0000.0001)    90 @  4.447098934081552E+05              /* I =  1: 90 */
(PID.TID 0000.0001)     ;
(PID.TID 0000.0001) dyF =  /* dyF(1,:,1,:) ( units: m ) */
(PID.TID 0000.0001)    40 @  4.447098934081552E+05              /* J =  1: 40 */
(PID.TID 0000.0001)     ;
(PID.TID 0000.0001) dxG =  /* dxG(:,1,:,1) ( units: m ) */
(PID.TID 0000.0001)    90 @  7.722306258078101E+04              /* I =  1: 90 */
(PID.TID 0000.0001)     ;
(PID.TID 0000.0001) dxG =  /* dxG(1,:,1,:) ( units: m ) */
(PID.TID 0000.0001)                 7.722306258078101E+04,      /* J =  1 */
(PID.TID 0000.0001)                 1.075850604052271E+05,      /* J =  2 */
(PID.TID 0000.0001)                 1.374229146297914E+05,      /* J =  3 */
(PID.TID 0000.0001)                 1.665912582279823E+05,      /* J =  4 */
(PID.TID 0000.0001)                 1.949479859617814E+05,      /* J =  5 */
(PID.TID 0000.0001)                 2.223549467040777E+05,      /* J =  6 */
(PID.TID 0000.0001)                 2.486786164970726E+05,      /* J =  7 */
(PID.TID 0000.0001)                 2.737907490675810E+05,      /* J =  8 */
(PID.TID 0000.0001)                 2.975690006299821E+05,      /* J =  9 */
(PID.TID 0000.0001)                 3.198975259328452E+05,      /* J = 10 */
(PID.TID 0000.0001)                 3.406675426453503E+05,      /* J = 11 */
(PID.TID 0000.0001)                 3.597778613338690E+05,      /* J = 12 */
(PID.TID 0000.0001)                 3.771353784467131E+05,      /* J = 13 */
(PID.TID 0000.0001)                 3.926555299052806E+05,      /* J = 14 */
(PID.TID 0000.0001)                 4.062627030917454E+05,      /* J = 15 */
(PID.TID 0000.0001)                 4.178906052261313E+05,      /* J = 16 */
(PID.TID 0000.0001)                 4.274825863380723E+05,      /* J = 17 */
(PID.TID 0000.0001)                 4.349919152597734E+05,      /* J = 18 */
(PID.TID 0000.0001)                 4.403820072955634E+05,      /* J = 19 */
(PID.TID 0000.0001)                 4.436266024588540E+05,      /* J = 20 */
(PID.TID 0000.0001)                 4.447098934081552E+05,      /* J = 21 */
(PID.TID 0000.0001)                 4.436266024588540E+05,      /* J = 22 */
(PID.TID 0000.0001)                 4.403820072955634E+05,      /* J = 23 */
(PID.TID 0000.0001)                 4.349919152597734E+05,      /* J = 24 */
(PID.TID 0000.0001)                 4.274825863380723E+05,      /* J = 25 */
(PID.TID 0000.0001)                 4.178906052261313E+05,      /* J = 26 */
(PID.TID 0000.0001)                 4.062627030917454E+05,      /* J = 27 */
(PID.TID 0000.0001)                 3.926555299052806E+05,      /* J = 28 */
(PID.TID 0000.0001)                 3.771353784467131E+05,      /* J = 29 */
(PID.TID 0000.0001)                 3.597778613338690E+05,      /* J = 30 */
(PID.TID 0000.0001)                 3.406675426453503E+05,      /* J = 31 */
(PID.TID 0000.0001)                 3.198975259328452E+05,      /* J = 32 */
(PID.TID 0000.0001)                 2.975690006299821E+05,      /* J = 33 */
(PID.TID 0000.0001)                 2.737907490675810E+05,      /* J = 34 */
(PID.TID 0000.0001)                 2.486786164970726E+05,      /* J = 35 */
(PID.TID 0000.0001)                 2.223549467040777E+05,      /* J = 36 */
(PID.TID 0000.0001)                 1.949479859617814E+05,      /* J = 37 */
(PID.TID 0000.0001)                 1.665912582279823E+05,      /* J = 38 */
(PID.TID 0000.0001)                 1.374229146297914E+05,      /* J = 39 */
(PID.TID 0000.0001)                 1.075850604052271E+05       /* J = 40 */
(PID.TID 0000.0001)     ;
(PID.TID 0000.0001) dyG =  /* dyG(:,1,:,1) ( units: m ) */
(PID.TID 0000.0001)    90 @  4.447098934081552E+05              /* I =  1: 90 */
(PID.TID 0000.0001)     ;
(PID.TID 0000.0001) dyG =  /* dyG(1,:,1,:) ( units: m ) */
(PID.TID 0000.0001)    40 @  4.447098934081552E+05              /* J =  1: 40 */
(PID.TID 0000.0001)     ;
(PID.TID 0000.0001) dxC =  /* dxC(:,1,:,1) ( units: m ) */
(PID.TID 0000.0001)    90 @  9.246038586187513E+04              /* I =  1: 90 */
(PID.TID 0000.0001)     ;
(PID.TID 0000.0001) dxC =  /* dxC(1,:,1,:) ( units: m ) */
(PID.TID 0000.0001)                 9.246038586187513E+04,      /* J =  1 */
(PID.TID 0000.0001)                 1.225786591246834E+05,      /* J =  2 */
(PID.TID 0000.0001)                 1.520997414818001E+05,      /* J =  3 */
(PID.TID 0000.0001)                 1.808798091874300E+05,      /* J =  4 */
(PID.TID 0000.0001)                 2.087786486446736E+05,      /* J =  5 */
(PID.TID 0000.0001)                 2.356603395120765E+05,      /* J =  6 */
(PID.TID 0000.0001)                 2.613939168938713E+05,      /* J =  7 */
(PID.TID 0000.0001)                 2.858540093877838E+05,      /* J =  8 */
(PID.TID 0000.0001)                 3.089214498819034E+05,      /* J =  9 */
(PID.TID 0000.0001)                 3.304838561248741E+05,      /* J = 10 */
(PID.TID 0000.0001)                 3.504361782409254E+05,      /* J = 11 */
(PID.TID 0000.0001)                 3.686812105223082E+05,      /* J = 12 */
(PID.TID 0000.0001)                 3.851300650057323E+05,      /* J = 13 */
(PID.TID 0000.0001)                 3.997026045255871E+05,      /* J = 14 */
(PID.TID 0000.0001)                 4.123278331341585E+05,      /* J = 15 */
(PID.TID 0000.0001)                 4.229442419867491E+05,      /* J = 16 */
(PID.TID 0000.0001)                 4.315001090065870E+05,      /* J = 17 */
(PID.TID 0000.0001)                 4.379537508695838E+05,      /* J = 18 */
(PID.TID 0000.0001)                 4.422737260813012E+05,      /* J = 19 */
(PID.TID 0000.0001)     2 @  4.444389881567502E+05,             /* J = 20: 21 */
(PID.TID 0000.0001)                 4.422737260813012E+05,      /* J = 22 */
(PID.TID 0000.0001)                 4.379537508695838E+05,      /* J = 23 */
(PID.TID 0000.0001)                 4.315001090065870E+05,      /* J = 24 */
(PID.TID 0000.0001)                 4.229442419867491E+05,      /* J = 25 */
(PID.TID 0000.0001)                 4.123278331341585E+05,      /* J = 26 */
(PID.TID 0000.0001)                 3.997026045255871E+05,      /* J = 27 */
(PID.TID 0000.0001)                 3.851300650057323E+05,      /* J = 28 */
(PID.TID 0000.0001)                 3.686812105223082E+05,      /* J = 29 */
(PID.TID 0000.0001)                 3.504361782409254E+05,      /* J = 30 */
(PID.TID 0000.0001)                 3.304838561248741E+05,      /* J = 31 */
(PID.TID 0000.0001)                 3.089214498819034E+05,      /* J = 32 */
(PID.TID 0000.0001)                 2.858540093877838E+05,      /* J = 33 */
(PID.TID 0000.0001)                 2.613939168938713E+05,      /* J = 34 */
(PID.TID 0000.0001)                 2.356603395120765E+05,      /* J = 35 */
(PID.TID 0000.0001)                 2.087786486446736E+05,      /* J = 36 */
(PID.TID 0000.0001)                 1.808798091874300E+05,      /* J = 37 */
(PID.TID 0000.0001)                 1.520997414818001E+05,      /* J = 38 */
(PID.TID 0000.0001)                 1.225786591246834E+05,      /* J = 39 */
(PID.TID 0000.0001)                 9.246038586187513E+04       /* J = 40 */
(PID.TID 0000.0001)     ;
(PID.TID 0000.0001) dyC =  /* dyC(:,1,:,1) ( units: m ) */
(PID.TID 0000.0001)    90 @  4.447098934081552E+05              /* I =  1: 90 */
(PID.TID 0000.0001)     ;
(PID.TID 0000.0001) dyC =  /* dyC(1,:,1,:) ( units: m ) */
(PID.TID 0000.0001)    40 @  4.447098934081552E+05              /* J =  1: 40 */
(PID.TID 0000.0001)     ;
(PID.TID 0000.0001) dxV =  /* dxV(:,1,:,1) ( units: m ) */
(PID.TID 0000.0001)    90 @  7.722306258078101E+04              /* I =  1: 90 */
(PID.TID 0000.0001)     ;
(PID.TID 0000.0001) dxV =  /* dxV(1,:,1,:) ( units: m ) */
(PID.TID 0000.0001)                 7.722306258078101E+04,      /* J =  1 */
(PID.TID 0000.0001)                 1.075850604052271E+05,      /* J =  2 */
(PID.TID 0000.0001)                 1.374229146297914E+05,      /* J =  3 */
(PID.TID 0000.0001)                 1.665912582279823E+05,      /* J =  4 */
(PID.TID 0000.0001)                 1.949479859617814E+05,      /* J =  5 */
(PID.TID 0000.0001)                 2.223549467040777E+05,      /* J =  6 */
(PID.TID 0000.0001)                 2.486786164970726E+05,      /* J =  7 */
(PID.TID 0000.0001)                 2.737907490675810E+05,      /* J =  8 */
(PID.TID 0000.0001)                 2.975690006299821E+05,      /* J =  9 */
(PID.TID 0000.0001)                 3.198975259328452E+05,      /* J = 10 */
(PID.TID 0000.0001)                 3.406675426453503E+05,      /* J = 11 */
(PID.TID 0000.0001)                 3.597778613338690E+05,      /* J = 12 */
(PID.TID 0000.0001)                 3.771353784467131E+05,      /* J = 13 */
(PID.TID 0000.0001)                 3.926555299052806E+05,      /* J = 14 */
(PID.TID 0000.0001)                 4.062627030917454E+05,      /* J = 15 */
(PID.TID 0000.0001)                 4.178906052261313E+05,      /* J = 16 */
(PID.TID 0000.0001)                 4.274825863380723E+05,      /* J = 17 */
(PID.TID 0000.0001)                 4.349919152597734E+05,      /* J = 18 */
(PID.TID 0000.0001)                 4.403820072955634E+05,      /* J = 19 */
(PID.TID 0000.0001)                 4.436266024588540E+05,      /* J = 20 */
(PID.TID 0000.0001)                 4.447098934081552E+05,      /* J = 21 */
(PID.TID 0000.0001)                 4.436266024588540E+05,      /* J = 22 */
(PID.TID 0000.0001)                 4.403820072955634E+05,      /* J = 23 */
(PID.TID 0000.0001)                 4.349919152597734E+05,      /* J = 24 */
(PID.TID 0000.0001)                 4.274825863380723E+05,      /* J = 25 */
(PID.TID 0000.0001)                 4.178906052261313E+05,      /* J = 26 */
(PID.TID 0000.0001)                 4.062627030917454E+05,      /* J = 27 */
(PID.TID 0000.0001)                 3.926555299052806E+05,      /* J = 28 */
(PID.TID 0000.0001)                 3.771353784467131E+05,      /* J = 29 */
(PID.TID 0000.0001)                 3.597778613338690E+05,      /* J = 30 */
(PID.TID 0000.0001)                 3.406675426453503E+05,      /* J = 31 */
(PID.TID 0000.0001)                 3.198975259328452E+05,      /* J = 32 */
(PID.TID 0000.0001)                 2.975690006299821E+05,      /* J = 33 */
(PID.TID 0000.0001)                 2.737907490675810E+05,      /* J = 34 */
(PID.TID 0000.0001)                 2.486786164970726E+05,      /* J = 35 */
(PID.TID 0000.0001)                 2.223549467040777E+05,      /* J = 36 */
(PID.TID 0000.0001)                 1.949479859617814E+05,      /* J = 37 */
(PID.TID 0000.0001)                 1.665912582279823E+05,      /* J = 38 */
(PID.TID 0000.0001)                 1.374229146297914E+05,      /* J = 39 */
(PID.TID 0000.0001)                 1.075850604052271E+05       /* J = 40 */
(PID.TID 0000.0001)     ;
(PID.TID 0000.0001) dyU =  /* dyU(:,1,:,1) ( units: m ) */
(PID.TID 0000.0001)    90 @  4.447098934081552E+05              /* I =  1: 90 */
(PID.TID 0000.0001)     ;
(PID.TID 0000.0001) dyU =  /* dyU(1,:,1,:) ( units: m ) */
(PID.TID 0000.0001)    40 @  4.447098934081552E+05              /* J =  1: 40 */
(PID.TID 0000.0001)     ;
(PID.TID 0000.0001) rA  =  /* rA (:,1,:,1) ( units: m^2 ) */
(PID.TID 0000.0001)    90 @  4.110969866729047E+10              /* I =  1: 90 */
(PID.TID 0000.0001)     ;
(PID.TID 0000.0001) rA  =  /* rA (1,:,1,:) ( units: m^2 ) */
(PID.TID 0000.0001)                 4.110969866729047E+10,      /* J =  1 */
(PID.TID 0000.0001)                 5.450087291636665E+10,      /* J =  2 */
(PID.TID 0000.0001)                 6.762652439100235E+10,      /* J =  3 */
(PID.TID 0000.0001)                 8.042270623659998E+10,      /* J =  4 */
(PID.TID 0000.0001)                 9.282707674147523E+10,      /* J =  5 */
(PID.TID 0000.0001)                 1.047792030594103E+11,      /* J =  6 */
(PID.TID 0000.0001)                 1.162208556324093E+11,      /* J =  7 */
(PID.TID 0000.0001)                 1.270962918792468E+11,      /* J =  8 */
(PID.TID 0000.0001)                 1.373525277677229E+11,      /* J =  9 */
(PID.TID 0000.0001)                 1.469395959475426E+11,      /* J = 10 */
(PID.TID 0000.0001)                 1.558107891862220E+11,      /* J = 11 */
(PID.TID 0000.0001)                 1.639228879220326E+11,      /* J = 12 */
(PID.TID 0000.0001)                 1.712363708253573E+11,      /* J = 13 */
(PID.TID 0000.0001)                 1.777156073426415E+11,      /* J = 14 */
(PID.TID 0000.0001)                 1.833290312848623E+11,      /* J = 15 */
(PID.TID 0000.0001)                 1.880492946148330E+11,      /* J = 16 */
(PID.TID 0000.0001)                 1.918534006840893E+11,      /* J = 17 */
(PID.TID 0000.0001)                 1.947228162702492E+11,      /* J = 18 */
(PID.TID 0000.0001)                 1.966435618690094E+11,      /* J = 19 */
(PID.TID 0000.0001)     2 @  1.976062798008856E+11,             /* J = 20: 21 */
(PID.TID 0000.0001)                 1.966435618690094E+11,      /* J = 22 */
(PID.TID 0000.0001)                 1.947228162702492E+11,      /* J = 23 */
(PID.TID 0000.0001)                 1.918534006840893E+11,      /* J = 24 */
(PID.TID 0000.0001)                 1.880492946148330E+11,      /* J = 25 */
(PID.TID 0000.0001)                 1.833290312848623E+11,      /* J = 26 */
(PID.TID 0000.0001)                 1.777156073426415E+11,      /* J = 27 */
(PID.TID 0000.0001)                 1.712363708253573E+11,      /* J = 28 */
(PID.TID 0000.0001)                 1.639228879220326E+11,      /* J = 29 */
(PID.TID 0000.0001)                 1.558107891862220E+11,      /* J = 30 */
(PID.TID 0000.0001)                 1.469395959475426E+11,      /* J = 31 */
(PID.TID 0000.0001)                 1.373525277677229E+11,      /* J = 32 */
(PID.TID 0000.0001)                 1.270962918792468E+11,      /* J = 33 */
(PID.TID 0000.0001)                 1.162208556324093E+11,      /* J = 34 */
(PID.TID 0000.0001)                 1.047792030594103E+11,      /* J = 35 */
(PID.TID 0000.0001)                 9.282707674147523E+10,      /* J = 36 */
(PID.TID 0000.0001)                 8.042270623659998E+10,      /* J = 37 */
(PID.TID 0000.0001)                 6.762652439100235E+10,      /* J = 38 */
(PID.TID 0000.0001)                 5.450087291636665E+10,      /* J = 39 */
(PID.TID 0000.0001)                 4.110969866729047E+10       /* J = 40 */
(PID.TID 0000.0001)     ;
(PID.TID 0000.0001) rAw =  /* rAw(:,1,:,1) ( units: m^2 ) */
(PID.TID 0000.0001)    90 @  4.110969866729047E+10              /* I =  1: 90 */
(PID.TID 0000.0001)     ;
(PID.TID 0000.0001) rAw =  /* rAw(1,:,1,:) ( units: m^2 ) */
(PID.TID 0000.0001)                 4.110969866729047E+10,      /* J =  1 */
(PID.TID 0000.0001)                 5.450087291636665E+10,      /* J =  2 */
(PID.TID 0000.0001)                 6.762652439100235E+10,      /* J =  3 */
(PID.TID 0000.0001)                 8.042270623659998E+10,      /* J =  4 */
(PID.TID 0000.0001)                 9.282707674147523E+10,      /* J =  5 */
(PID.TID 0000.0001)                 1.047792030594103E+11,      /* J =  6 */
(PID.TID 0000.0001)                 1.162208556324093E+11,      /* J =  7 */
(PID.TID 0000.0001)                 1.270962918792468E+11,      /* J =  8 */
(PID.TID 0000.0001)                 1.373525277677229E+11,      /* J =  9 */
(PID.TID 0000.0001)                 1.469395959475426E+11,      /* J = 10 */
(PID.TID 0000.0001)                 1.558107891862220E+11,      /* J = 11 */
(PID.TID 0000.0001)                 1.639228879220326E+11,      /* J = 12 */
(PID.TID 0000.0001)                 1.712363708253573E+11,      /* J = 13 */
(PID.TID 0000.0001)                 1.777156073426415E+11,      /* J = 14 */
(PID.TID 0000.0001)                 1.833290312848623E+11,      /* J = 15 */
(PID.TID 0000.0001)                 1.880492946148330E+11,      /* J = 16 */
(PID.TID 0000.0001)                 1.918534006840893E+11,      /* J = 17 */
(PID.TID 0000.0001)                 1.947228162702492E+11,      /* J = 18 */
(PID.TID 0000.0001)                 1.966435618690094E+11,      /* J = 19 */
(PID.TID 0000.0001)     2 @  1.976062798008856E+11,             /* J = 20: 21 */
(PID.TID 0000.0001)                 1.966435618690094E+11,      /* J = 22 */
(PID.TID 0000.0001)                 1.947228162702492E+11,      /* J = 23 */
(PID.TID 0000.0001)                 1.918534006840893E+11,      /* J = 24 */
(PID.TID 0000.0001)                 1.880492946148330E+11,      /* J = 25 */
(PID.TID 0000.0001)                 1.833290312848623E+11,      /* J = 26 */
(PID.TID 0000.0001)                 1.777156073426415E+11,      /* J = 27 */
(PID.TID 0000.0001)                 1.712363708253573E+11,      /* J = 28 */
(PID.TID 0000.0001)                 1.639228879220326E+11,      /* J = 29 */
(PID.TID 0000.0001)                 1.558107891862220E+11,      /* J = 30 */
(PID.TID 0000.0001)                 1.469395959475426E+11,      /* J = 31 */
(PID.TID 0000.0001)                 1.373525277677229E+11,      /* J = 32 */
(PID.TID 0000.0001)                 1.270962918792468E+11,      /* J = 33 */
(PID.TID 0000.0001)                 1.162208556324093E+11,      /* J = 34 */
(PID.TID 0000.0001)                 1.047792030594103E+11,      /* J = 35 */
(PID.TID 0000.0001)                 9.282707674147523E+10,      /* J = 36 */
(PID.TID 0000.0001)                 8.042270623659998E+10,      /* J = 37 */
(PID.TID 0000.0001)                 6.762652439100235E+10,      /* J = 38 */
(PID.TID 0000.0001)                 5.450087291636665E+10,      /* J = 39 */
(PID.TID 0000.0001)                 4.110969866729047E+10       /* J = 40 */
(PID.TID 0000.0001)     ;
(PID.TID 0000.0001) rAs =  /* rAs(:,1,:,1) ( units: m^2 ) */
(PID.TID 0000.0001)    90 @  3.433488626798250E+10              /* I =  1: 90 */
(PID.TID 0000.0001)     ;
(PID.TID 0000.0001) rAs =  /* rAs(1,:,1,:) ( units: m^2 ) */
(PID.TID 0000.0001)                 3.433488626798250E+10,      /* J =  1 */
(PID.TID 0000.0001)                 4.783442523123625E+10,      /* J =  2 */
(PID.TID 0000.0001)                 6.110091968306414E+10,      /* J =  3 */
(PID.TID 0000.0001)                 7.406973659603818E+10,      /* J =  4 */
(PID.TID 0000.0001)                 8.667769319778079E+10,      /* J =  5 */
(PID.TID 0000.0001)                 9.886336479107463E+10,      /* J =  6 */
(PID.TID 0000.0001)                 1.105673840088173E+11,      /* J =  7 */
(PID.TID 0000.0001)                 1.217327300458638E+11,      /* J =  8 */
(PID.TID 0000.0001)                 1.323050064586578E+11,      /* J =  9 */
(PID.TID 0000.0001)                 1.422327061792377E+11,      /* J = 10 */
(PID.TID 0000.0001)                 1.514674624524945E+11,      /* J = 11 */
(PID.TID 0000.0001)                 1.599642844741385E+11,      /* J = 12 */
(PID.TID 0000.0001)                 1.676817765813788E+11,      /* J = 13 */
(PID.TID 0000.0001)                 1.745823399284268E+11,      /* J = 14 */
(PID.TID 0000.0001)                 1.806323556642996E+11,      /* J = 15 */
(PID.TID 0000.0001)                 1.858023487204767E+11,      /* J = 16 */
(PID.TID 0000.0001)                 1.900671314104743E+11,      /* J = 17 */
(PID.TID 0000.0001)                 1.934059261417216E+11,      /* J = 18 */
(PID.TID 0000.0001)                 1.958024666419019E+11,      /* J = 19 */
(PID.TID 0000.0001)                 1.972450772065981E+11,      /* J = 20 */
(PID.TID 0000.0001)                 1.977267295821495E+11,      /* J = 21 */
(PID.TID 0000.0001)                 1.972450772065981E+11,      /* J = 22 */
(PID.TID 0000.0001)                 1.958024666419019E+11,      /* J = 23 */
(PID.TID 0000.0001)                 1.934059261417216E+11,      /* J = 24 */
(PID.TID 0000.0001)                 1.900671314104743E+11,      /* J = 25 */
(PID.TID 0000.0001)                 1.858023487204767E+11,      /* J = 26 */
(PID.TID 0000.0001)                 1.806323556642996E+11,      /* J = 27 */
(PID.TID 0000.0001)                 1.745823399284268E+11,      /* J = 28 */
(PID.TID 0000.0001)                 1.676817765813788E+11,      /* J = 29 */
(PID.TID 0000.0001)                 1.599642844741385E+11,      /* J = 30 */
(PID.TID 0000.0001)                 1.514674624524945E+11,      /* J = 31 */
(PID.TID 0000.0001)                 1.422327061792377E+11,      /* J = 32 */
(PID.TID 0000.0001)                 1.323050064586578E+11,      /* J = 33 */
(PID.TID 0000.0001)                 1.217327300458638E+11,      /* J = 34 */
(PID.TID 0000.0001)                 1.105673840088173E+11,      /* J = 35 */
(PID.TID 0000.0001)                 9.886336479107463E+10,      /* J = 36 */
(PID.TID 0000.0001)                 8.667769319778079E+10,      /* J = 37 */
(PID.TID 0000.0001)                 7.406973659603818E+10,      /* J = 38 */
(PID.TID 0000.0001)                 6.110091968306414E+10,      /* J = 39 */
(PID.TID 0000.0001)                 4.783442523123625E+10       /* J = 40 */
(PID.TID 0000.0001)     ;
(PID.TID 0000.0001) globalArea = /* Integrated horizontal Area (m^2) */
(PID.TID 0000.0001)                 3.335490855875278E+14
(PID.TID 0000.0001)     ;
(PID.TID 0000.0001) // =======================================================
(PID.TID 0000.0001) // End of Model config. summary
(PID.TID 0000.0001) // =======================================================
(PID.TID 0000.0001) 
(PID.TID 0000.0001) == Packages configuration : Check & print summary ==
(PID.TID 0000.0001) 
(PID.TID 0000.0001) GMREDI_CHECK: #define GMREDI
(PID.TID 0000.0001) GM_AdvForm =     /* if FALSE => use SkewFlux Form */
(PID.TID 0000.0001)                   F
(PID.TID 0000.0001)     ;
(PID.TID 0000.0001) GM_InMomAsStress = /* if TRUE => apply as Eddy Stress */
(PID.TID 0000.0001)                   F
(PID.TID 0000.0001)     ;
(PID.TID 0000.0001) GM_AdvSeparate = /* Calc Bolus & Euler Adv. separately */
(PID.TID 0000.0001)                   F
(PID.TID 0000.0001)     ;
(PID.TID 0000.0001) GM_ExtraDiag =   /* Tensor Extra Diag (line 1&2) non 0 */
(PID.TID 0000.0001)                   F
(PID.TID 0000.0001)     ;
(PID.TID 0000.0001) GM_isopycK =    /* Background Isopyc. Diffusivity [m^2/s] */
(PID.TID 0000.0001)                 1.000000000000000E+03
(PID.TID 0000.0001)     ;
(PID.TID 0000.0001) GM_skewflx*K =  /* Background GM_SkewFlx Diffusivity [m^2/s] */
(PID.TID 0000.0001)                 1.000000000000000E+03
(PID.TID 0000.0001)     ;
(PID.TID 0000.0001) GM_advec*K =    /* Backg. GM-Advec(=Bolus) Diffusivity [m^2/s]*/
(PID.TID 0000.0001)                 0.000000000000000E+00
(PID.TID 0000.0001)     ;
(PID.TID 0000.0001) GM_Kmin_horiz = /* Minimum Horizontal Diffusivity [m^2/s] */
(PID.TID 0000.0001)                 5.000000000000000E+01
(PID.TID 0000.0001)     ;
(PID.TID 0000.0001) GM_Visbeck_alpha = /* Visbeck alpha coeff. [-] */
(PID.TID 0000.0001)                 0.000000000000000E+00
(PID.TID 0000.0001)     ;
(PID.TID 0000.0001) GM_Small_Number =  /* epsilon used in slope calc */
(PID.TID 0000.0001)                 9.999999999999999E-21
(PID.TID 0000.0001)     ;
(PID.TID 0000.0001) GM_slopeSqCutoff = /* Slope^2 cut-off value */
(PID.TID 0000.0001)                 1.000000000000000E+48
(PID.TID 0000.0001)     ;
(PID.TID 0000.0001) GM_taper_scheme =  /* Type of Tapering/Clipping scheme */
(PID.TID 0000.0001)               'gkw91                                   '
(PID.TID 0000.0001)     ;
(PID.TID 0000.0001) GM_maxSlope =  /* Maximum Slope (Tapering/Clipping) */
(PID.TID 0000.0001)                 1.000000000000000E-02
(PID.TID 0000.0001)     ;
(PID.TID 0000.0001) GM_facTrL2dz = /* Minimum Trans.Layer Thick. (factor of dz) */
(PID.TID 0000.0001)                 1.000000000000000E+00
(PID.TID 0000.0001)     ;
(PID.TID 0000.0001) GM_facTrL2ML = /* Max.Trans.Layer Thick. (factor of MxL Depth)*/
(PID.TID 0000.0001)                 5.000000000000000E+00
(PID.TID 0000.0001)     ;
(PID.TID 0000.0001) GM_maxTransLay = /* Maximum Transition Layer Thickness [m] */
(PID.TID 0000.0001)                 5.000000000000000E+02
(PID.TID 0000.0001)     ;
(PID.TID 0000.0001) GM_UseBVP = /* if TRUE => use bvp a la Ferrari et al. (2010) */
(PID.TID 0000.0001)                   F
(PID.TID 0000.0001)     ;
(PID.TID 0000.0001) GM_BVP_ModeNumber = /* Vertical mode number for BVP wave speed */
(PID.TID 0000.0001)                       1
(PID.TID 0000.0001)     ;
(PID.TID 0000.0001) GM_BVP_cMin = /* Minimum wave speed for BVP [m/s] */
(PID.TID 0000.0001)                 1.000000000000000E-01
(PID.TID 0000.0001)     ;
(PID.TID 0000.0001) GM_useSubMeso = /* if TRUE => use Sub-Meso param. (B.Fox-Kemper) */
(PID.TID 0000.0001)                   F
(PID.TID 0000.0001)     ;
(PID.TID 0000.0001) subMeso_Ceff = /* efficiency coeff. of Mixed-Layer Eddies [-] */
(PID.TID 0000.0001)                 7.000000000000001E-02
(PID.TID 0000.0001)     ;
(PID.TID 0000.0001) subMeso_invTau = /* inverse of Sub-Meso mixing time-scale [/s] */
(PID.TID 0000.0001)                 2.000000000000000E-06
(PID.TID 0000.0001)     ;
(PID.TID 0000.0001) subMeso_LfMin = /* minimum length-scale "Lf" [m] */
(PID.TID 0000.0001)                 1.000000000000000E+03
(PID.TID 0000.0001)     ;
(PID.TID 0000.0001) subMeso_Lmax = /* maximum grid-scale length [m] */
(PID.TID 0000.0001)                 1.100000000000000E+05
(PID.TID 0000.0001)     ;
(PID.TID 0000.0001) GAD_CHECK: #define ALLOW_GENERIC_ADVDIFF
(PID.TID 0000.0001) // =======================================================
(PID.TID 0000.0001) // CONFIG_CHECK : Normal End
(PID.TID 0000.0001) // =======================================================
(PID.TID 0000.0001) 
(PID.TID 0000.0001)  MDS_READ_FIELD: opening global file: Lev_clim_theta.bin
(PID.TID 0000.0001)  MDS_READ_FIELD: opening global file: Lev_clim_salt.bin
(PID.TID 0000.0001) Start initial hydrostatic pressure computation
(PID.TID 0000.0001) Pressure is predetermined for buoyancyRelation OCEANIC
(PID.TID 0000.0001) 
(PID.TID 0000.0001)  MDS_READ_FIELD: opening global file: Taux.bin
(PID.TID 0000.0001)  MDS_READ_FIELD: opening global file: Tauy.bin
(PID.TID 0000.0001)  MDS_READ_FIELD: opening global file: SSS.bin
(PID.TID 0000.0001)  MDS_READ_FIELD: opening global file: Runoff.bin
(PID.TID 0000.0001) // =======================================================
(PID.TID 0000.0001) // Model current state
(PID.TID 0000.0001) // =======================================================
(PID.TID 0000.0001) 
(PID.TID 0000.0001) // =======================================================
(PID.TID 0000.0001) // Begin MONITOR dynamic field statistics
(PID.TID 0000.0001) // =======================================================
(PID.TID 0000.0001) %MON time_tsnumber                =                     0
(PID.TID 0000.0001) %MON time_secondsf                =   0.0000000000000E+00
(PID.TID 0000.0001) %MON dynstat_eta_max              =   0.0000000000000E+00
(PID.TID 0000.0001) %MON dynstat_eta_min              =   0.0000000000000E+00
(PID.TID 0000.0001) %MON dynstat_eta_mean             =   0.0000000000000E+00
(PID.TID 0000.0001) %MON dynstat_eta_sd               =   0.0000000000000E+00
(PID.TID 0000.0001) %MON dynstat_eta_del2             =   0.0000000000000E+00
(PID.TID 0000.0001) %MON dynstat_uvel_max             =   0.0000000000000E+00
(PID.TID 0000.0001) %MON dynstat_uvel_min             =   0.0000000000000E+00
(PID.TID 0000.0001) %MON dynstat_uvel_mean            =   0.0000000000000E+00
(PID.TID 0000.0001) %MON dynstat_uvel_sd              =   0.0000000000000E+00
(PID.TID 0000.0001) %MON dynstat_uvel_del2            =   0.0000000000000E+00
(PID.TID 0000.0001) %MON dynstat_vvel_max             =   0.0000000000000E+00
(PID.TID 0000.0001) %MON dynstat_vvel_min             =   0.0000000000000E+00
(PID.TID 0000.0001) %MON dynstat_vvel_mean            =   0.0000000000000E+00
(PID.TID 0000.0001) %MON dynstat_vvel_sd              =   0.0000000000000E+00
(PID.TID 0000.0001) %MON dynstat_vvel_del2            =   0.0000000000000E+00
(PID.TID 0000.0001) %MON dynstat_wvel_max             =  -0.0000000000000E+00
(PID.TID 0000.0001) %MON dynstat_wvel_min             =  -0.0000000000000E+00
(PID.TID 0000.0001) %MON dynstat_wvel_mean            =   0.0000000000000E+00
(PID.TID 0000.0001) %MON dynstat_wvel_sd              =   0.0000000000000E+00
(PID.TID 0000.0001) %MON dynstat_wvel_del2            =   0.0000000000000E+00
(PID.TID 0000.0001) %MON dynstat_theta_max            =   2.9329580307007E+01
(PID.TID 0000.0001) %MON dynstat_theta_min            =  -1.8507585525513E+00
(PID.TID 0000.0001) %MON dynstat_theta_mean           =   3.4385862740247E+00
(PID.TID 0000.0001) %MON dynstat_theta_sd             =   4.1126810597649E+00
(PID.TID 0000.0001) %MON dynstat_theta_del2           =   5.2167403232001E-03
(PID.TID 0000.0001) %MON dynstat_salt_max             =   3.7439460754395E+01
(PID.TID 0000.0001) %MON dynstat_salt_min             =   3.1028352737427E+01
(PID.TID 0000.0001) %MON dynstat_salt_mean            =   3.4715046474651E+01
(PID.TID 0000.0001) %MON dynstat_salt_sd              =   2.7634376761930E-01
(PID.TID 0000.0001) %MON dynstat_salt_del2            =   8.6201567836572E-04
(PID.TID 0000.0001) %MON forcing_qnet_max             =   0.0000000000000E+00
(PID.TID 0000.0001) %MON forcing_qnet_min             =   0.0000000000000E+00
(PID.TID 0000.0001) %MON forcing_qnet_mean            =   0.0000000000000E+00
(PID.TID 0000.0001) %MON forcing_qnet_sd              =   0.0000000000000E+00
(PID.TID 0000.0001) %MON forcing_qnet_del2            =   0.0000000000000E+00
(PID.TID 0000.0001) %MON forcing_qsw_max              =   0.0000000000000E+00
(PID.TID 0000.0001) %MON forcing_qsw_min              =   0.0000000000000E+00
(PID.TID 0000.0001) %MON forcing_qsw_mean             =   0.0000000000000E+00
(PID.TID 0000.0001) %MON forcing_qsw_sd               =   0.0000000000000E+00
(PID.TID 0000.0001) %MON forcing_qsw_del2             =   0.0000000000000E+00
(PID.TID 0000.0001) %MON forcing_empmr_max            =   0.0000000000000E+00
(PID.TID 0000.0001) %MON forcing_empmr_min            =   0.0000000000000E+00
(PID.TID 0000.0001) %MON forcing_empmr_mean           =   0.0000000000000E+00
(PID.TID 0000.0001) %MON forcing_empmr_sd             =   0.0000000000000E+00
(PID.TID 0000.0001) %MON forcing_empmr_del2           =   0.0000000000000E+00
(PID.TID 0000.0001) %MON forcing_fu_max               =   1.6004334390163E-01
(PID.TID 0000.0001) %MON forcing_fu_min               =  -1.0329221189022E-01
(PID.TID 0000.0001) %MON forcing_fu_mean              =   4.1280488583042E-03
(PID.TID 0000.0001) %MON forcing_fu_sd                =   5.5800359441598E-02
(PID.TID 0000.0001) %MON forcing_fu_del2              =   3.2370368543278E-04
(PID.TID 0000.0001) %MON forcing_fv_max               =   8.4633164107800E-02
(PID.TID 0000.0001) %MON forcing_fv_min               =  -7.0490099489689E-02
(PID.TID 0000.0001) %MON forcing_fv_mean              =   2.8803575798275E-03
(PID.TID 0000.0001) %MON forcing_fv_sd                =   2.2193297771215E-02
(PID.TID 0000.0001) %MON forcing_fv_del2              =   2.1170835219132E-04
(PID.TID 0000.0001) %MON advcfl_uvel_max              =   0.0000000000000E+00
(PID.TID 0000.0001) %MON advcfl_vvel_max              =   0.0000000000000E+00
(PID.TID 0000.0001) %MON advcfl_wvel_max              =   0.0000000000000E+00
(PID.TID 0000.0001) %MON advcfl_W_hf_max              =   0.0000000000000E+00
(PID.TID 0000.0001) %MON pe_b_mean                    =   0.0000000000000E+00
(PID.TID 0000.0001) %MON ke_max                       =   0.0000000000000E+00
(PID.TID 0000.0001) %MON ke_mean                      =   0.0000000000000E+00
(PID.TID 0000.0001) %MON ke_vol                       =   1.4101703507225E+18
(PID.TID 0000.0001) %MON vort_r_min                   =   0.0000000000000E+00
(PID.TID 0000.0001) %MON vort_r_max                   =   0.0000000000000E+00
(PID.TID 0000.0001) %MON vort_a_mean                  =  -1.9976608796704E-05
(PID.TID 0000.0001) %MON vort_a_sd                    =   7.3718720794772E-05
(PID.TID 0000.0001) %MON vort_p_mean                  =  -2.3730263022063E-05
(PID.TID 0000.0001) %MON vort_p_sd                    =   1.0369776513329E-04
(PID.TID 0000.0001) %MON surfExpan_theta_mean         =   0.0000000000000E+00
(PID.TID 0000.0001) %MON surfExpan_salt_mean          =   0.0000000000000E+00
(PID.TID 0000.0001) // =======================================================
(PID.TID 0000.0001) // End MONITOR dynamic field statistics
(PID.TID 0000.0001) // =======================================================
 SH   5.2213892178558012        23.296536408581801     
 NH   10.477982531836687        25.564398561832434     
 SH   5.2213892178558012        23.296536408581801     
 NH   10.477982531836687        25.564398561832434     
 SH   5.2213892178558012        23.296536408581801     
 NH   10.477982531836687        25.564398561832434     
 SH   5.2213892178558012        23.296536408581801     
 NH   10.477982531836687        25.564398561832434     
 SH   5.2213892178558012        23.296536408581801     
 NH   10.477982531836687        25.564398561832434     
 SH   5.2213892178558012        23.296536408581801     
 NH   10.477982531836687        25.564398561832434     
(PID.TID 0000.0001) SOLVE_FOR_PRESSURE: putPmEinXvector =    F
 cg2d: Sum(rhs),rhsMax =   4.56487814491686E-03  7.56857183677435E+00
(PID.TID 0000.0001)                    cg2d_init_res =    2.96825754374152E+00
(PID.TID 0000.0001)                       cg2d_iters =    95
(PID.TID 0000.0001)                         cg2d_res =    9.68064638723283E-14
(PID.TID 0000.0001) // =======================================================
(PID.TID 0000.0001) // Begin MONITOR dynamic field statistics
(PID.TID 0000.0001) // =======================================================
(PID.TID 0000.0001) %MON time_tsnumber                =                     1
(PID.TID 0000.0001) %MON time_secondsf                =   4.3200000000000E+04
(PID.TID 0000.0001) %MON dynstat_eta_max              =   1.1736845382492E+00
(PID.TID 0000.0001) %MON dynstat_eta_min              =  -6.1061116148051E-01
(PID.TID 0000.0001) %MON dynstat_eta_mean             =  -5.9304525380417E-05
(PID.TID 0000.0001) %MON dynstat_eta_sd               =   1.8075706190864E-01
(PID.TID 0000.0001) %MON dynstat_eta_del2             =   2.5404718732571E-03
(PID.TID 0000.0001) %MON dynstat_uvel_max             =   2.9639513361931E-02
(PID.TID 0000.0001) %MON dynstat_uvel_min             =  -5.2398302357292E-02
(PID.TID 0000.0001) %MON dynstat_uvel_mean            =  -3.0854644002477E-04
(PID.TID 0000.0001) %MON dynstat_uvel_sd              =   1.0693974409083E-03
(PID.TID 0000.0001) %MON dynstat_uvel_del2            =   1.3729327746868E-05
(PID.TID 0000.0001) %MON dynstat_vvel_max             =   4.5970363119441E-02
(PID.TID 0000.0001) %MON dynstat_vvel_min             =  -7.1168018451038E-02
(PID.TID 0000.0001) %MON dynstat_vvel_mean            =   6.8157742460439E-04
(PID.TID 0000.0001) %MON dynstat_vvel_sd              =   2.2174081583308E-03
(PID.TID 0000.0001) %MON dynstat_vvel_del2            =   1.6160255131998E-05
(PID.TID 0000.0001) %MON dynstat_wvel_max             =   2.0713199059729E-04
(PID.TID 0000.0001) %MON dynstat_wvel_min             =  -1.2808580646271E-04
(PID.TID 0000.0001) %MON dynstat_wvel_mean            =  -7.1737533498060E-23
(PID.TID 0000.0001) %MON dynstat_wvel_sd              =   8.1938136638426E-06
(PID.TID 0000.0001) %MON dynstat_wvel_del2            =   1.0182047165768E-07
(PID.TID 0000.0001) %MON dynstat_theta_max            =   2.9312844900415E+01
(PID.TID 0000.0001) %MON dynstat_theta_min            =  -1.8502991284254E+00
(PID.TID 0000.0001) %MON dynstat_theta_mean           =   3.4385879792238E+00
(PID.TID 0000.0001) %MON dynstat_theta_sd             =   4.1125533541681E+00
(PID.TID 0000.0001) %MON dynstat_theta_del2           =   5.2116106719110E-03
(PID.TID 0000.0001) %MON dynstat_salt_max             =   3.7439939489452E+01
(PID.TID 0000.0001) %MON dynstat_salt_min             =   3.1029392905402E+01
(PID.TID 0000.0001) %MON dynstat_salt_mean            =   3.4715047037666E+01
(PID.TID 0000.0001) %MON dynstat_salt_sd              =   2.7633946897181E-01
(PID.TID 0000.0001) %MON dynstat_salt_del2            =   8.6146701961473E-04
(PID.TID 0000.0001) %MON forcing_qnet_max             =   1.3199679941600E+02
(PID.TID 0000.0001) %MON forcing_qnet_min             =  -3.5049627091214E+01
(PID.TID 0000.0001) %MON forcing_qnet_mean            =  -6.8984510202485E-01
(PID.TID 0000.0001) %MON forcing_qnet_sd              =   2.2692302782162E+01
(PID.TID 0000.0001) %MON forcing_qnet_del2            =   1.1257799519057E-01
(PID.TID 0000.0001) %MON forcing_qsw_max              =   0.0000000000000E+00
(PID.TID 0000.0001) %MON forcing_qsw_min              =   0.0000000000000E+00
(PID.TID 0000.0001) %MON forcing_qsw_mean             =   0.0000000000000E+00
(PID.TID 0000.0001) %MON forcing_qsw_sd               =   0.0000000000000E+00
(PID.TID 0000.0001) %MON forcing_qsw_del2             =   0.0000000000000E+00
(PID.TID 0000.0001) %MON forcing_empmr_max            =   3.7600374110707E-05
(PID.TID 0000.0001) %MON forcing_empmr_min            =  -2.9685016686068E-05
(PID.TID 0000.0001) %MON forcing_empmr_mean           =   1.4208375872388E-06
(PID.TID 0000.0001) %MON forcing_empmr_sd             =   1.1923373923198E-05
(PID.TID 0000.0001) %MON forcing_empmr_del2           =   7.4400852469102E-08
(PID.TID 0000.0001) %MON forcing_fu_max               =   1.6004334390163E-01
(PID.TID 0000.0001) %MON forcing_fu_min               =  -1.0329221189022E-01
(PID.TID 0000.0001) %MON forcing_fu_mean              =   4.1280488583042E-03
(PID.TID 0000.0001) %MON forcing_fu_sd                =   5.5800359441598E-02
(PID.TID 0000.0001) %MON forcing_fu_del2              =   3.2370368543278E-04
(PID.TID 0000.0001) %MON forcing_fv_max               =   8.4633164107800E-02
(PID.TID 0000.0001) %MON forcing_fv_min               =  -7.0490099489689E-02
(PID.TID 0000.0001) %MON forcing_fv_mean              =   2.8803575798275E-03
(PID.TID 0000.0001) %MON forcing_fv_sd                =   2.2193297771215E-02
(PID.TID 0000.0001) %MON forcing_fv_del2              =   2.1170835219132E-04
(PID.TID 0000.0001) %MON advcfl_uvel_max              =   5.1685974999426E-03
(PID.TID 0000.0001) %MON advcfl_vvel_max              =   6.9134022936232E-03
(PID.TID 0000.0001) %MON advcfl_wvel_max              =   4.6922416093800E-02
(PID.TID 0000.0001) %MON advcfl_W_hf_max              =   3.0015085740792E-02
(PID.TID 0000.0001) %MON pe_b_mean                    =   3.7906857325893E-05
(PID.TID 0000.0001) %MON ke_max                       =   1.4096650412454E-03
(PID.TID 0000.0001) %MON ke_mean                      =   3.0203659697274E-06
(PID.TID 0000.0001) %MON ke_vol                       =   1.4101703507225E+18
(PID.TID 0000.0001) %MON vort_r_min                   =  -1.6792450150902E-07
(PID.TID 0000.0001) %MON vort_r_max                   =   1.5951000007155E-07
(PID.TID 0000.0001) %MON vort_a_mean                  =  -1.9976608796704E-05
(PID.TID 0000.0001) %MON vort_a_sd                    =   7.3718651710844E-05
(PID.TID 0000.0001) %MON vort_p_mean                  =  -2.3730263022063E-05
(PID.TID 0000.0001) %MON vort_p_sd                    =   1.0369763376288E-04
(PID.TID 0000.0001) %MON surfExpan_theta_mean         =   2.4665994686965E-05
(PID.TID 0000.0001) %MON surfExpan_salt_mean          =   1.8683900588010E-06
(PID.TID 0000.0001) // =======================================================
(PID.TID 0000.0001) // End MONITOR dynamic field statistics
(PID.TID 0000.0001) // =======================================================
 SH   5.2201194813001734        23.297498110483730     
 NH   10.466538306882399        25.565240031177950     
 SH   5.2201194813001734        23.297498110483730     
 NH   10.466538306882399        25.565240031177950     
 SH   5.2201194813001734        23.297498110483730     
 NH   10.466538306882399        25.565240031177950     
 SH   5.2201194813001734        23.297498110483730     
 NH   10.466538306882399        25.565240031177950     
 SH   5.2201194813001734        23.297498110483730     
 NH   10.466538306882399        25.565240031177950     
 SH   5.2201194813001734        23.297498110483730     
 NH   10.466538306882399        25.565240031177950     
 cg2d: Sum(rhs),rhsMax =   7.92229361493879E-03  8.72212261883491E+00
(PID.TID 0000.0001)                    cg2d_init_res =    4.87949406257562E-01
(PID.TID 0000.0001)                       cg2d_iters =    92
(PID.TID 0000.0001)                         cg2d_res =    8.27617126122733E-14
(PID.TID 0000.0001) // =======================================================
(PID.TID 0000.0001) // Begin MONITOR dynamic field statistics
(PID.TID 0000.0001) // =======================================================
(PID.TID 0000.0001) %MON time_tsnumber                =                     2
(PID.TID 0000.0001) %MON time_secondsf                =   8.6400000000000E+04
(PID.TID 0000.0001) %MON dynstat_eta_max              =   1.5130404725686E+00
(PID.TID 0000.0001) %MON dynstat_eta_min              =  -1.0203807235013E+00
(PID.TID 0000.0001) %MON dynstat_eta_mean             =  -1.1860905076084E-04
(PID.TID 0000.0001) %MON dynstat_eta_sd               =   3.4235069629528E-01
(PID.TID 0000.0001) %MON dynstat_eta_del2             =   2.8011194387366E-03
(PID.TID 0000.0001) %MON dynstat_uvel_max             =   6.2222634944644E-02
(PID.TID 0000.0001) %MON dynstat_uvel_min             =  -9.9988065744854E-02
(PID.TID 0000.0001) %MON dynstat_uvel_mean            =  -5.8876745484270E-04
(PID.TID 0000.0001) %MON dynstat_uvel_sd              =   2.1073450814823E-03
(PID.TID 0000.0001) %MON dynstat_uvel_del2            =   2.7413084296583E-05
(PID.TID 0000.0001) %MON dynstat_vvel_max             =   8.8322957889066E-02
(PID.TID 0000.0001) %MON dynstat_vvel_min             =  -1.3512378323517E-01
(PID.TID 0000.0001) %MON dynstat_vvel_mean            =   1.0343392740293E-03
(PID.TID 0000.0001) %MON dynstat_vvel_sd              =   3.7818927895126E-03
(PID.TID 0000.0001) %MON dynstat_vvel_del2            =   3.2161115569367E-05
(PID.TID 0000.0001) %MON dynstat_wvel_max             =   3.9770277394448E-04
(PID.TID 0000.0001) %MON dynstat_wvel_min             =  -2.5072971361639E-04
(PID.TID 0000.0001) %MON dynstat_wvel_mean            =  -3.6792121140589E-22
(PID.TID 0000.0001) %MON dynstat_wvel_sd              =   1.4311884340780E-05
(PID.TID 0000.0001) %MON dynstat_wvel_del2            =   1.8667832497183E-07
(PID.TID 0000.0001) %MON dynstat_theta_max            =   2.9294047802532E+01
(PID.TID 0000.0001) %MON dynstat_theta_min            =  -1.8498031863846E+00
(PID.TID 0000.0001) %MON dynstat_theta_mean           =   3.4381864525340E+00
(PID.TID 0000.0001) %MON dynstat_theta_sd             =   4.1115891573882E+00
(PID.TID 0000.0001) %MON dynstat_theta_del2           =   5.1931297425994E-03
(PID.TID 0000.0001) %MON dynstat_salt_max             =   3.7440280115663E+01
(PID.TID 0000.0001) %MON dynstat_salt_min             =   3.1028963468988E+01
(PID.TID 0000.0001) %MON dynstat_salt_mean            =   3.4715017047178E+01
(PID.TID 0000.0001) %MON dynstat_salt_sd              =   2.7634387391740E-01
(PID.TID 0000.0001) %MON dynstat_salt_del2            =   8.6065408433251E-04
(PID.TID 0000.0001) %MON forcing_qnet_max             =   1.3078311401276E+02
(PID.TID 0000.0001) %MON forcing_qnet_min             =  -3.5027305383591E+01
(PID.TID 0000.0001) %MON forcing_qnet_mean            =  -6.9821893006721E-01
(PID.TID 0000.0001) %MON forcing_qnet_sd              =   2.2554382928799E+01
(PID.TID 0000.0001) %MON forcing_qnet_del2            =   1.1211932913852E-01
(PID.TID 0000.0001) %MON forcing_qsw_max              =   0.0000000000000E+00
(PID.TID 0000.0001) %MON forcing_qsw_min              =   0.0000000000000E+00
(PID.TID 0000.0001) %MON forcing_qsw_mean             =   0.0000000000000E+00
(PID.TID 0000.0001) %MON forcing_qsw_sd               =   0.0000000000000E+00
(PID.TID 0000.0001) %MON forcing_qsw_del2             =   0.0000000000000E+00
(PID.TID 0000.0001) %MON forcing_empmr_max            =   3.7600374110707E-05
(PID.TID 0000.0001) %MON forcing_empmr_min            =  -2.9685016686068E-05
(PID.TID 0000.0001) %MON forcing_empmr_mean           =   1.4208375872388E-06
(PID.TID 0000.0001) %MON forcing_empmr_sd             =   1.1923373923198E-05
(PID.TID 0000.0001) %MON forcing_empmr_del2           =   7.4400852469102E-08
(PID.TID 0000.0001) %MON forcing_fu_max               =   1.6004334390163E-01
(PID.TID 0000.0001) %MON forcing_fu_min               =  -1.0329221189022E-01
(PID.TID 0000.0001) %MON forcing_fu_mean              =   4.1280488583042E-03
(PID.TID 0000.0001) %MON forcing_fu_sd                =   5.5800359441598E-02
(PID.TID 0000.0001) %MON forcing_fu_del2              =   3.2370368543278E-04
(PID.TID 0000.0001) %MON forcing_fv_max               =   8.4633164107800E-02
(PID.TID 0000.0001) %MON forcing_fv_min               =  -7.0490099489689E-02
(PID.TID 0000.0001) %MON forcing_fv_mean              =   2.8803575798275E-03
(PID.TID 0000.0001) %MON forcing_fv_sd                =   2.2193297771215E-02
(PID.TID 0000.0001) %MON forcing_fv_del2              =   2.1170835219132E-04
(PID.TID 0000.0001) %MON advcfl_uvel_max              =   9.8628780587016E-03
(PID.TID 0000.0001) %MON advcfl_vvel_max              =   1.3126191978827E-02
(PID.TID 0000.0001) %MON advcfl_wvel_max              =   4.3760740878758E-02
(PID.TID 0000.0001) %MON advcfl_W_hf_max              =   4.6978442413961E-02
(PID.TID 0000.0001) %MON pe_b_mean                    =   1.3597831961627E-04
(PID.TID 0000.0001) %MON ke_max                       =   5.0385510045197E-03
(PID.TID 0000.0001) %MON ke_mean                      =   9.2044047379898E-06
(PID.TID 0000.0001) %MON ke_vol                       =   1.4101703507225E+18
(PID.TID 0000.0001) %MON vort_r_min                   =  -3.1668384149679E-07
(PID.TID 0000.0001) %MON vort_r_max                   =   3.0100766804172E-07
(PID.TID 0000.0001) %MON vort_a_mean                  =  -1.9976608796704E-05
(PID.TID 0000.0001) %MON vort_a_sd                    =   7.3718593202955E-05
(PID.TID 0000.0001) %MON vort_p_mean                  =  -2.3730263022063E-05
(PID.TID 0000.0001) %MON vort_p_sd                    =   1.0369751122770E-04
(PID.TID 0000.0001) %MON surfExpan_theta_mean         =   3.0834771328192E-05
(PID.TID 0000.0001) %MON surfExpan_salt_mean          =   2.0627032546216E-06
(PID.TID 0000.0001) // =======================================================
(PID.TID 0000.0001) // End MONITOR dynamic field statistics
(PID.TID 0000.0001) // =======================================================
 SH   5.2213226316872579        23.295104820995221     
 NH   10.461116343096933        25.564431296622899     
 SH   5.2213226316872579        23.295104820995221     
 NH   10.461116343096933        25.564431296622899     
 SH   5.2213226316872579        23.295104820995221     
 NH   10.461116343096933        25.564431296622899     
 SH   5.2213226316872579        23.295104820995221     
 NH   10.461116343096933        25.564431296622899     
 SH   5.2213226316872579        23.295104820995221     
 NH   10.461116343096933        25.564431296622899     
 SH   5.2213226316872579        23.295104820995221     
 NH   10.461116343096933        25.564431296622899     
 cg2d: Sum(rhs),rhsMax =   1.20732186719270E-02  8.58502006088184E+00
(PID.TID 0000.0001)                    cg2d_init_res =    2.92906963094598E-01
(PID.TID 0000.0001)                       cg2d_iters =    91
(PID.TID 0000.0001)                         cg2d_res =    8.47089458149021E-14
(PID.TID 0000.0001) // =======================================================
(PID.TID 0000.0001) // Begin MONITOR dynamic field statistics
(PID.TID 0000.0001) // =======================================================
(PID.TID 0000.0001) %MON time_tsnumber                =                     3
(PID.TID 0000.0001) %MON time_secondsf                =   1.2960000000000E+05
(PID.TID 0000.0001) %MON dynstat_eta_max              =   1.6600025658767E+00
(PID.TID 0000.0001) %MON dynstat_eta_min              =  -1.4238640832431E+00
(PID.TID 0000.0001) %MON dynstat_eta_mean             =  -1.7791357614108E-04
(PID.TID 0000.0001) %MON dynstat_eta_sd               =   4.5727452760298E-01
(PID.TID 0000.0001) %MON dynstat_eta_del2             =   2.7053037477194E-03
(PID.TID 0000.0001) %MON dynstat_uvel_max             =   9.2581798410369E-02
(PID.TID 0000.0001) %MON dynstat_uvel_min             =  -1.4673242897767E-01
(PID.TID 0000.0001) %MON dynstat_uvel_mean            =  -7.6493676238444E-04
(PID.TID 0000.0001) %MON dynstat_uvel_sd              =   3.1231664507103E-03
(PID.TID 0000.0001) %MON dynstat_uvel_del2            =   4.0336379227082E-05
(PID.TID 0000.0001) %MON dynstat_vvel_max             =   1.3031790013601E-01
(PID.TID 0000.0001) %MON dynstat_vvel_min             =  -1.9839791594964E-01
(PID.TID 0000.0001) %MON dynstat_vvel_mean            =   1.1645800348200E-03
(PID.TID 0000.0001) %MON dynstat_vvel_sd              =   5.1968650383883E-03
(PID.TID 0000.0001) %MON dynstat_vvel_del2            =   4.7056337975344E-05
(PID.TID 0000.0001) %MON dynstat_wvel_max             =   5.9314835339198E-04
(PID.TID 0000.0001) %MON dynstat_wvel_min             =  -3.7481106468497E-04
(PID.TID 0000.0001) %MON dynstat_wvel_mean            =  -1.3637234090720E-22
(PID.TID 0000.0001) %MON dynstat_wvel_sd              =   2.0490682283388E-05
(PID.TID 0000.0001) %MON dynstat_wvel_del2            =   2.7251218465039E-07
(PID.TID 0000.0001) %MON dynstat_theta_max            =   2.9275063648763E+01
(PID.TID 0000.0001) %MON dynstat_theta_min            =  -1.8509829547393E+00
(PID.TID 0000.0001) %MON dynstat_theta_mean           =   3.4378353302010E+00
(PID.TID 0000.0001) %MON dynstat_theta_sd             =   4.1106326823509E+00
(PID.TID 0000.0001) %MON dynstat_theta_del2           =   5.1781767011389E-03
(PID.TID 0000.0001) %MON dynstat_salt_max             =   3.7440658773426E+01
(PID.TID 0000.0001) %MON dynstat_salt_min             =   3.1028467130944E+01
(PID.TID 0000.0001) %MON dynstat_salt_mean            =   3.4714995334085E+01
(PID.TID 0000.0001) %MON dynstat_salt_sd              =   2.7634148617249E-01
(PID.TID 0000.0001) %MON dynstat_salt_del2            =   8.5969006962741E-04
(PID.TID 0000.0001) %MON forcing_qnet_max             =   1.3032187685907E+02
(PID.TID 0000.0001) %MON forcing_qnet_min             =  -3.5067523785533E+01
(PID.TID 0000.0001) %MON forcing_qnet_mean            =  -7.0982274051419E-01
(PID.TID 0000.0001) %MON forcing_qnet_sd              =   2.2514231567150E+01
(PID.TID 0000.0001) %MON forcing_qnet_del2            =   1.1204061494946E-01
(PID.TID 0000.0001) %MON forcing_qsw_max              =   0.0000000000000E+00
(PID.TID 0000.0001) %MON forcing_qsw_min              =   0.0000000000000E+00
(PID.TID 0000.0001) %MON forcing_qsw_mean             =   0.0000000000000E+00
(PID.TID 0000.0001) %MON forcing_qsw_sd               =   0.0000000000000E+00
(PID.TID 0000.0001) %MON forcing_qsw_del2             =   0.0000000000000E+00
(PID.TID 0000.0001) %MON forcing_empmr_max            =   3.7600374110707E-05
(PID.TID 0000.0001) %MON forcing_empmr_min            =  -2.9685016686068E-05
(PID.TID 0000.0001) %MON forcing_empmr_mean           =   1.4208375872388E-06
(PID.TID 0000.0001) %MON forcing_empmr_sd             =   1.1923373923198E-05
(PID.TID 0000.0001) %MON forcing_empmr_del2           =   7.4400852469102E-08
(PID.TID 0000.0001) %MON forcing_fu_max               =   1.6004334390163E-01
(PID.TID 0000.0001) %MON forcing_fu_min               =  -1.0329221189022E-01
(PID.TID 0000.0001) %MON forcing_fu_mean              =   4.1280488583042E-03
(PID.TID 0000.0001) %MON forcing_fu_sd                =   5.5800359441598E-02
(PID.TID 0000.0001) %MON forcing_fu_del2              =   3.2370368543278E-04
(PID.TID 0000.0001) %MON forcing_fv_max               =   8.4633164107800E-02
(PID.TID 0000.0001) %MON forcing_fv_min               =  -7.0490099489689E-02
(PID.TID 0000.0001) %MON forcing_fv_mean              =   2.8803575798275E-03
(PID.TID 0000.0001) %MON forcing_fv_sd                =   2.2193297771215E-02
(PID.TID 0000.0001) %MON forcing_fv_del2              =   2.1170835219132E-04
(PID.TID 0000.0001) %MON advcfl_uvel_max              =   1.4473767879026E-02
(PID.TID 0000.0001) %MON advcfl_vvel_max              =   1.9272766574496E-02
(PID.TID 0000.0001) %MON advcfl_wvel_max              =   6.5463364374433E-02
(PID.TID 0000.0001) %MON advcfl_W_hf_max              =   7.0276847049023E-02
(PID.TID 0000.0001) %MON pe_b_mean                    =   2.4259467964466E-04
(PID.TID 0000.0001) %MON ke_max                       =   1.0815199987385E-02
(PID.TID 0000.0001) %MON ke_mean                      =   1.7678030136994E-05
(PID.TID 0000.0001) %MON ke_vol                       =   1.4101703507225E+18
(PID.TID 0000.0001) %MON vort_r_min                   =  -4.6265642284244E-07
(PID.TID 0000.0001) %MON vort_r_max                   =   4.4018280588331E-07
(PID.TID 0000.0001) %MON vort_a_mean                  =  -1.9976608796704E-05
(PID.TID 0000.0001) %MON vort_a_sd                    =   7.3718557375321E-05
(PID.TID 0000.0001) %MON vort_p_mean                  =  -2.3730263022063E-05
(PID.TID 0000.0001) %MON vort_p_sd                    =   1.0369744911001E-04
(PID.TID 0000.0001) %MON surfExpan_theta_mean         =   2.7032483894626E-05
(PID.TID 0000.0001) %MON surfExpan_salt_mean          =   1.4922468118841E-06
(PID.TID 0000.0001) // =======================================================
(PID.TID 0000.0001) // End MONITOR dynamic field statistics
(PID.TID 0000.0001) // =======================================================
 SH   5.2239784640246398        23.292315657392749     
 NH   10.454561116350249        25.562871281340620     
 SH   5.2239784640246398        23.292315657392749     
 NH   10.454561116350249        25.562871281340620     
 SH   5.2239784640246398        23.292315657392749     
 NH   10.454561116350249        25.562871281340620     
 SH   5.2239784640246398        23.292315657392749     
 NH   10.454561116350249        25.562871281340620     
 SH   5.2239784640246398        23.292315657392749     
 NH   10.454561116350249        25.562871281340620     
 SH   5.2239784640246398        23.292315657392749     
 NH   10.454561116350249        25.562871281340620     
 cg2d: Sum(rhs),rhsMax =   1.61200145091811E-02  8.57309604685134E+00
(PID.TID 0000.0001)                    cg2d_init_res =    2.07906686557384E-01
(PID.TID 0000.0001)                       cg2d_iters =    91
(PID.TID 0000.0001)                         cg2d_res =    8.86458657743508E-14
(PID.TID 0000.0001) // =======================================================
(PID.TID 0000.0001) // Begin MONITOR dynamic field statistics
(PID.TID 0000.0001) // =======================================================
(PID.TID 0000.0001) %MON time_tsnumber                =                     4
(PID.TID 0000.0001) %MON time_secondsf                =   1.7280000000000E+05
(PID.TID 0000.0001) %MON dynstat_eta_max              =   1.8354613051516E+00
(PID.TID 0000.0001) %MON dynstat_eta_min              =  -1.6832902695276E+00
(PID.TID 0000.0001) %MON dynstat_eta_mean             =  -2.3721810152162E-04
(PID.TID 0000.0001) %MON dynstat_eta_sd               =   5.2648926022513E-01
(PID.TID 0000.0001) %MON dynstat_eta_del2             =   2.6520973702759E-03
(PID.TID 0000.0001) %MON dynstat_uvel_max             =   1.2184328916279E-01
(PID.TID 0000.0001) %MON dynstat_uvel_min             =  -1.9205310913151E-01
(PID.TID 0000.0001) %MON dynstat_uvel_mean            =  -8.3340459318499E-04
(PID.TID 0000.0001) %MON dynstat_uvel_sd              =   4.1228620613570E-03
(PID.TID 0000.0001) %MON dynstat_uvel_del2            =   5.2669584967415E-05
(PID.TID 0000.0001) %MON dynstat_vvel_max             =   1.7171451830079E-01
(PID.TID 0000.0001) %MON dynstat_vvel_min             =  -2.6021208264941E-01
(PID.TID 0000.0001) %MON dynstat_vvel_mean            =   1.1641960105592E-03
(PID.TID 0000.0001) %MON dynstat_vvel_sd              =   6.6149052632190E-03
(PID.TID 0000.0001) %MON dynstat_vvel_del2            =   6.1037350998232E-05
(PID.TID 0000.0001) %MON dynstat_wvel_max             =   7.8855617370640E-04
(PID.TID 0000.0001) %MON dynstat_wvel_min             =  -4.9731667733730E-04
(PID.TID 0000.0001) %MON dynstat_wvel_mean            =  -1.2500797916494E-22
(PID.TID 0000.0001) %MON dynstat_wvel_sd              =   2.6616352621169E-05
(PID.TID 0000.0001) %MON dynstat_wvel_del2            =   3.5490385310459E-07
(PID.TID 0000.0001) %MON dynstat_theta_max            =   2.9255997280406E+01
(PID.TID 0000.0001) %MON dynstat_theta_min            =  -1.8518337506317E+00
(PID.TID 0000.0001) %MON dynstat_theta_mean           =   3.4375842317905E+00
(PID.TID 0000.0001) %MON dynstat_theta_sd             =   4.1098367680701E+00
(PID.TID 0000.0001) %MON dynstat_theta_del2           =   5.1577860645360E-03
(PID.TID 0000.0001) %MON dynstat_salt_max             =   3.7441067315234E+01
(PID.TID 0000.0001) %MON dynstat_salt_min             =   3.1029021742495E+01
(PID.TID 0000.0001) %MON dynstat_salt_mean            =   3.4714984129983E+01
(PID.TID 0000.0001) %MON dynstat_salt_sd              =   2.7633500457494E-01
(PID.TID 0000.0001) %MON dynstat_salt_del2            =   8.5859486411537E-04
(PID.TID 0000.0001) %MON forcing_qnet_max             =   1.2981912452040E+02
(PID.TID 0000.0001) %MON forcing_qnet_min             =  -3.5124195153424E+01
(PID.TID 0000.0001) %MON forcing_qnet_mean            =  -7.2432927255511E-01
(PID.TID 0000.0001) %MON forcing_qnet_sd              =   2.2474503147865E+01
(PID.TID 0000.0001) %MON forcing_qnet_del2            =   1.1197707433335E-01
(PID.TID 0000.0001) %MON forcing_qsw_max              =   0.0000000000000E+00
(PID.TID 0000.0001) %MON forcing_qsw_min              =   0.0000000000000E+00
(PID.TID 0000.0001) %MON forcing_qsw_mean             =   0.0000000000000E+00
(PID.TID 0000.0001) %MON forcing_qsw_sd               =   0.0000000000000E+00
(PID.TID 0000.0001) %MON forcing_qsw_del2             =   0.0000000000000E+00
(PID.TID 0000.0001) %MON forcing_empmr_max            =   3.7600374110707E-05
(PID.TID 0000.0001) %MON forcing_empmr_min            =  -2.9685016686068E-05
(PID.TID 0000.0001) %MON forcing_empmr_mean           =   1.4208375872388E-06
(PID.TID 0000.0001) %MON forcing_empmr_sd             =   1.1923373923198E-05
(PID.TID 0000.0001) %MON forcing_empmr_del2           =   7.4400852469102E-08
(PID.TID 0000.0001) %MON forcing_fu_max               =   1.6004334390163E-01
(PID.TID 0000.0001) %MON forcing_fu_min               =  -1.0329221189022E-01
(PID.TID 0000.0001) %MON forcing_fu_mean              =   4.1280488583042E-03
(PID.TID 0000.0001) %MON forcing_fu_sd                =   5.5800359441598E-02
(PID.TID 0000.0001) %MON forcing_fu_del2              =   3.2370368543278E-04
(PID.TID 0000.0001) %MON forcing_fv_max               =   8.4633164107800E-02
(PID.TID 0000.0001) %MON forcing_fv_min               =  -7.0490099489689E-02
(PID.TID 0000.0001) %MON forcing_fv_mean              =   2.8803575798275E-03
(PID.TID 0000.0001) %MON forcing_fv_sd                =   2.2193297771215E-02
(PID.TID 0000.0001) %MON forcing_fv_del2              =   2.1170835219132E-04
(PID.TID 0000.0001) %MON advcfl_uvel_max              =   1.8944224813711E-02
(PID.TID 0000.0001) %MON advcfl_vvel_max              =   2.5277517179357E-02
(PID.TID 0000.0001) %MON advcfl_wvel_max              =   8.7275263330074E-02
(PID.TID 0000.0001) %MON advcfl_W_hf_max              =   9.3692562104345E-02
(PID.TID 0000.0001) %MON pe_b_mean                    =   3.2159279338264E-04
(PID.TID 0000.0001) %MON ke_max                       =   1.8567801259654E-02
(PID.TID 0000.0001) %MON ke_mean                      =   2.8692940161520E-05
(PID.TID 0000.0001) %MON ke_vol                       =   1.4101703507225E+18
(PID.TID 0000.0001) %MON vort_r_min                   =  -6.0390938996041E-07
(PID.TID 0000.0001) %MON vort_r_max                   =   5.7718732290558E-07
(PID.TID 0000.0001) %MON vort_a_mean                  =  -1.9976608796704E-05
(PID.TID 0000.0001) %MON vort_a_sd                    =   7.3718543802912E-05
(PID.TID 0000.0001) %MON vort_p_mean                  =  -2.3730263022063E-05
(PID.TID 0000.0001) %MON vort_p_sd                    =   1.0369743820395E-04
(PID.TID 0000.0001) %MON surfExpan_theta_mean         =   1.9073198817562E-05
(PID.TID 0000.0001) %MON surfExpan_salt_mean          =   7.3729330836936E-07
(PID.TID 0000.0001) // =======================================================
(PID.TID 0000.0001) // End MONITOR dynamic field statistics
(PID.TID 0000.0001) // =======================================================
 SH   5.2277936367903521        23.290998919149160     
 NH   10.447101321969285        25.560602030631344     
 SH   5.2277936367903521        23.290998919149160     
 NH   10.447101321969285        25.560602030631344     
 SH   5.2277936367903521        23.290998919149160     
 NH   10.447101321969285        25.560602030631344     
 SH   5.2277936367903521        23.290998919149160     
 NH   10.447101321969285        25.560602030631344     
 SH   5.2277936367903521        23.290998919149160     
 NH   10.447101321969285        25.560602030631344     
 SH   5.2277936367903521        23.290998919149160     
 NH   10.447101321969285        25.560602030631344     
 cg2d: Sum(rhs),rhsMax =   2.02231227436589E-02  8.54210514466641E+00
(PID.TID 0000.0001)                    cg2d_init_res =    1.87149092742126E-01
(PID.TID 0000.0001)                       cg2d_iters =    92
(PID.TID 0000.0001)                         cg2d_res =    7.24541567461000E-14
(PID.TID 0000.0001) // =======================================================
(PID.TID 0000.0001) // Begin MONITOR dynamic field statistics
(PID.TID 0000.0001) // =======================================================
(PID.TID 0000.0001) %MON time_tsnumber                =                     5
(PID.TID 0000.0001) %MON time_secondsf                =   2.1600000000000E+05
(PID.TID 0000.0001) %MON dynstat_eta_max              =   1.9978000224458E+00
(PID.TID 0000.0001) %MON dynstat_eta_min              =  -1.7191775897873E+00
(PID.TID 0000.0001) %MON dynstat_eta_mean             =  -2.9652262690192E-04
(PID.TID 0000.0001) %MON dynstat_eta_sd               =   5.6184551740015E-01
(PID.TID 0000.0001) %MON dynstat_eta_del2             =   2.5954551553031E-03
(PID.TID 0000.0001) %MON dynstat_uvel_max             =   1.4992009486736E-01
(PID.TID 0000.0001) %MON dynstat_uvel_min             =  -2.3551268318508E-01
(PID.TID 0000.0001) %MON dynstat_uvel_mean            =  -8.2188876402891E-04
(PID.TID 0000.0001) %MON dynstat_uvel_sd              =   5.1251680777120E-03
(PID.TID 0000.0001) %MON dynstat_uvel_del2            =   6.4365659275235E-05
(PID.TID 0000.0001) %MON dynstat_vvel_max             =   2.1220885283899E-01
(PID.TID 0000.0001) %MON dynstat_vvel_min             =  -3.1988401076215E-01
(PID.TID 0000.0001) %MON dynstat_vvel_mean            =   1.0759707486195E-03
(PID.TID 0000.0001) %MON dynstat_vvel_sd              =   8.0209828266287E-03
(PID.TID 0000.0001) %MON dynstat_vvel_del2            =   7.3962309200490E-05
(PID.TID 0000.0001) %MON dynstat_wvel_max             =   9.7879943638124E-04
(PID.TID 0000.0001) %MON dynstat_wvel_min             =  -6.1692364458947E-04
(PID.TID 0000.0001) %MON dynstat_wvel_mean            =  -7.9550532195869E-23
(PID.TID 0000.0001) %MON dynstat_wvel_sd              =   3.2518507036581E-05
(PID.TID 0000.0001) %MON dynstat_wvel_del2            =   4.3220014490780E-07
(PID.TID 0000.0001) %MON dynstat_theta_max            =   2.9237828898898E+01
(PID.TID 0000.0001) %MON dynstat_theta_min            =  -1.8527455791190E+00
(PID.TID 0000.0001) %MON dynstat_theta_mean           =   3.4374399784883E+00
(PID.TID 0000.0001) %MON dynstat_theta_sd             =   4.1092979401105E+00
(PID.TID 0000.0001) %MON dynstat_theta_del2           =   5.1338827435948E-03
(PID.TID 0000.0001) %MON dynstat_salt_max             =   3.7441471355473E+01
(PID.TID 0000.0001) %MON dynstat_salt_min             =   3.1030652750906E+01
(PID.TID 0000.0001) %MON dynstat_salt_mean            =   3.4714981758670E+01
(PID.TID 0000.0001) %MON dynstat_salt_sd              =   2.7632712295627E-01
(PID.TID 0000.0001) %MON dynstat_salt_del2            =   8.5748091476761E-04
(PID.TID 0000.0001) %MON forcing_qnet_max             =   1.2929354820930E+02
(PID.TID 0000.0001) %MON forcing_qnet_min             =  -3.5170985017588E+01
(PID.TID 0000.0001) %MON forcing_qnet_mean            =  -7.3733710556119E-01
(PID.TID 0000.0001) %MON forcing_qnet_sd              =   2.2431220103192E+01
(PID.TID 0000.0001) %MON forcing_qnet_del2            =   1.1187679366180E-01
(PID.TID 0000.0001) %MON forcing_qsw_max              =   0.0000000000000E+00
(PID.TID 0000.0001) %MON forcing_qsw_min              =   0.0000000000000E+00
(PID.TID 0000.0001) %MON forcing_qsw_mean             =   0.0000000000000E+00
(PID.TID 0000.0001) %MON forcing_qsw_sd               =   0.0000000000000E+00
(PID.TID 0000.0001) %MON forcing_qsw_del2             =   0.0000000000000E+00
(PID.TID 0000.0001) %MON forcing_empmr_max            =   3.7600374110707E-05
(PID.TID 0000.0001) %MON forcing_empmr_min            =  -2.9685016686068E-05
(PID.TID 0000.0001) %MON forcing_empmr_mean           =   1.4208375872388E-06
(PID.TID 0000.0001) %MON forcing_empmr_sd             =   1.1923373923198E-05
(PID.TID 0000.0001) %MON forcing_empmr_del2           =   7.4400852469102E-08
(PID.TID 0000.0001) %MON forcing_fu_max               =   1.6004334390163E-01
(PID.TID 0000.0001) %MON forcing_fu_min               =  -1.0329221189022E-01
(PID.TID 0000.0001) %MON forcing_fu_mean              =   4.1280488583042E-03
(PID.TID 0000.0001) %MON forcing_fu_sd                =   5.5800359441598E-02
(PID.TID 0000.0001) %MON forcing_fu_del2              =   3.2370368543278E-04
(PID.TID 0000.0001) %MON forcing_fv_max               =   8.4633164107800E-02
(PID.TID 0000.0001) %MON forcing_fv_min               =  -7.0490099489689E-02
(PID.TID 0000.0001) %MON forcing_fv_mean              =   2.8803575798275E-03
(PID.TID 0000.0001) %MON forcing_fv_sd                =   2.2193297771215E-02
(PID.TID 0000.0001) %MON forcing_fv_del2              =   2.1170835219132E-04
(PID.TID 0000.0001) %MON advcfl_uvel_max              =   2.3231101214212E-02
(PID.TID 0000.0001) %MON advcfl_vvel_max              =   3.1074166484175E-02
(PID.TID 0000.0001) %MON advcfl_wvel_max              =   1.0854708172133E-01
(PID.TID 0000.0001) %MON advcfl_W_hf_max              =   1.1652848478907E-01
(PID.TID 0000.0001) %MON pe_b_mean                    =   3.6623609808019E-04
(PID.TID 0000.0001) %MON ke_max                       =   2.8030950879435E-02
(PID.TID 0000.0001) %MON ke_mean                      =   4.2236491850083E-05
(PID.TID 0000.0001) %MON ke_vol                       =   1.4101703507225E+18
(PID.TID 0000.0001) %MON vort_r_min                   =  -7.3854440614020E-07
(PID.TID 0000.0001) %MON vort_r_max                   =   7.1080968716655E-07
(PID.TID 0000.0001) %MON vort_a_mean                  =  -1.9976608796704E-05
(PID.TID 0000.0001) %MON vort_a_sd                    =   7.3718546707920E-05
(PID.TID 0000.0001) %MON vort_p_mean                  =  -2.3730263022063E-05
(PID.TID 0000.0001) %MON vort_p_sd                    =   1.0369745006737E-04
(PID.TID 0000.0001) %MON surfExpan_theta_mean         =   1.0611334945743E-05
(PID.TID 0000.0001) %MON surfExpan_salt_mean          =   8.6849658434691E-08
(PID.TID 0000.0001) // =======================================================
(PID.TID 0000.0001) // End MONITOR dynamic field statistics
(PID.TID 0000.0001) // =======================================================
 SH   5.2323697529021729        23.291618865352689     
 NH   10.438788164739719        25.558155626580003     
 SH   5.2323697529021729        23.291618865352689     
 NH   10.438788164739719        25.558155626580003     
 SH   5.2323697529021729        23.291618865352689     
 NH   10.438788164739719        25.558155626580003     
 SH   5.2323697529021729        23.291618865352689     
 NH   10.438788164739719        25.558155626580003     
 SH   5.2323697529021729        23.291618865352689     
 NH   10.438788164739719        25.558155626580003     
 SH   5.2323697529021729        23.291618865352689     
 NH   10.438788164739719        25.558155626580003     
 cg2d: Sum(rhs),rhsMax =   2.46783963849369E-02  8.39996431544641E+00
(PID.TID 0000.0001)                    cg2d_init_res =    1.79558175219638E-01
(PID.TID 0000.0001)                       cg2d_iters =    91
(PID.TID 0000.0001)                         cg2d_res =    9.66161233744691E-14
(PID.TID 0000.0001) // =======================================================
(PID.TID 0000.0001) // Begin MONITOR dynamic field statistics
(PID.TID 0000.0001) // =======================================================
(PID.TID 0000.0001) %MON time_tsnumber                =                     6
(PID.TID 0000.0001) %MON time_secondsf                =   2.5920000000000E+05
(PID.TID 0000.0001) %MON dynstat_eta_max              =   2.1117762301044E+00
(PID.TID 0000.0001) %MON dynstat_eta_min              =  -1.6488051976940E+00
(PID.TID 0000.0001) %MON dynstat_eta_mean             =  -3.5582715228248E-04
(PID.TID 0000.0001) %MON dynstat_eta_sd               =   5.7545673859178E-01
(PID.TID 0000.0001) %MON dynstat_eta_del2             =   2.5262612530328E-03
(PID.TID 0000.0001) %MON dynstat_uvel_max             =   1.7651708688739E-01
(PID.TID 0000.0001) %MON dynstat_uvel_min             =  -2.7709594635820E-01
(PID.TID 0000.0001) %MON dynstat_uvel_mean            =  -7.5936236761738E-04
(PID.TID 0000.0001) %MON dynstat_uvel_sd              =   6.1503387320076E-03
(PID.TID 0000.0001) %MON dynstat_uvel_del2            =   7.5337795592320E-05
(PID.TID 0000.0001) %MON dynstat_vvel_max             =   2.5171482829543E-01
(PID.TID 0000.0001) %MON dynstat_vvel_min             =  -3.7750617836196E-01
(PID.TID 0000.0001) %MON dynstat_vvel_mean            =   9.1329896679516E-04
(PID.TID 0000.0001) %MON dynstat_vvel_sd              =   9.3719986078523E-03
(PID.TID 0000.0001) %MON dynstat_vvel_del2            =   8.5658983465205E-05
(PID.TID 0000.0001) %MON dynstat_wvel_max             =   1.1636923971252E-03
(PID.TID 0000.0001) %MON dynstat_wvel_min             =  -7.3352470633448E-04
(PID.TID 0000.0001) %MON dynstat_wvel_mean            =  -4.1479920359274E-22
(PID.TID 0000.0001) %MON dynstat_wvel_sd              =   3.8123941928496E-05
(PID.TID 0000.0001) %MON dynstat_wvel_del2            =   5.0391046709636E-07
(PID.TID 0000.0001) %MON dynstat_theta_max            =   2.9221077285936E+01
(PID.TID 0000.0001) %MON dynstat_theta_min            =  -1.8536249999368E+00
(PID.TID 0000.0001) %MON dynstat_theta_mean           =   3.4373852907373E+00
(PID.TID 0000.0001) %MON dynstat_theta_sd             =   4.1090291159708E+00
(PID.TID 0000.0001) %MON dynstat_theta_del2           =   5.1078046668435E-03
(PID.TID 0000.0001) %MON dynstat_salt_max             =   3.7441878207290E+01
(PID.TID 0000.0001) %MON dynstat_salt_min             =   3.1032899023203E+01
(PID.TID 0000.0001) %MON dynstat_salt_mean            =   3.4714985379125E+01
(PID.TID 0000.0001) %MON dynstat_salt_sd              =   2.7631960355691E-01
(PID.TID 0000.0001) %MON dynstat_salt_del2            =   8.5631290566048E-04
(PID.TID 0000.0001) %MON forcing_qnet_max             =   1.2869977056624E+02
(PID.TID 0000.0001) %MON forcing_qnet_min             =  -3.5198817188299E+01
(PID.TID 0000.0001) %MON forcing_qnet_mean            =  -7.4721485216354E-01
(PID.TID 0000.0001) %MON forcing_qnet_sd              =   2.2377011550229E+01
(PID.TID 0000.0001) %MON forcing_qnet_del2            =   1.1171005642587E-01
(PID.TID 0000.0001) %MON forcing_qsw_max              =   0.0000000000000E+00
(PID.TID 0000.0001) %MON forcing_qsw_min              =   0.0000000000000E+00
(PID.TID 0000.0001) %MON forcing_qsw_mean             =   0.0000000000000E+00
(PID.TID 0000.0001) %MON forcing_qsw_sd               =   0.0000000000000E+00
(PID.TID 0000.0001) %MON forcing_qsw_del2             =   0.0000000000000E+00
(PID.TID 0000.0001) %MON forcing_empmr_max            =   3.7600374110707E-05
(PID.TID 0000.0001) %MON forcing_empmr_min            =  -2.9685016686068E-05
(PID.TID 0000.0001) %MON forcing_empmr_mean           =   1.4208375872388E-06
(PID.TID 0000.0001) %MON forcing_empmr_sd             =   1.1923373923198E-05
(PID.TID 0000.0001) %MON forcing_empmr_del2           =   7.4400852469102E-08
(PID.TID 0000.0001) %MON forcing_fu_max               =   1.6004334390163E-01
(PID.TID 0000.0001) %MON forcing_fu_min               =  -1.0329221189022E-01
(PID.TID 0000.0001) %MON forcing_fu_mean              =   4.1280488583042E-03
(PID.TID 0000.0001) %MON forcing_fu_sd                =   5.5800359441598E-02
(PID.TID 0000.0001) %MON forcing_fu_del2              =   3.2370368543278E-04
(PID.TID 0000.0001) %MON forcing_fv_max               =   8.4633164107800E-02
(PID.TID 0000.0001) %MON forcing_fv_min               =  -7.0490099489689E-02
(PID.TID 0000.0001) %MON forcing_fv_mean              =   2.8803575798275E-03
(PID.TID 0000.0001) %MON forcing_fv_sd                =   2.2193297771215E-02
(PID.TID 0000.0001) %MON forcing_fv_del2              =   2.1170835219132E-04
(PID.TID 0000.0001) %MON advcfl_uvel_max              =   2.7332897272614E-02
(PID.TID 0000.0001) %MON advcfl_vvel_max              =   3.6671697992266E-02
(PID.TID 0000.0001) %MON advcfl_wvel_max              =   1.2922567157013E-01
(PID.TID 0000.0001) %MON advcfl_W_hf_max              =   1.3872755918558E-01
(PID.TID 0000.0001) %MON pe_b_mean                    =   3.8419588850300E-04
(PID.TID 0000.0001) %MON ke_max                       =   3.9018252353992E-02
(PID.TID 0000.0001) %MON ke_mean                      =   5.8071108726441E-05
(PID.TID 0000.0001) %MON ke_vol                       =   1.4101703507225E+18
(PID.TID 0000.0001) %MON vort_r_min                   =  -8.6677748163742E-07
(PID.TID 0000.0001) %MON vort_r_max                   =   8.4098082293208E-07
(PID.TID 0000.0001) %MON vort_a_mean                  =  -1.9976608796704E-05
(PID.TID 0000.0001) %MON vort_a_sd                    =   7.3718560367618E-05
(PID.TID 0000.0001) %MON vort_p_mean                  =  -2.3730263022063E-05
(PID.TID 0000.0001) %MON vort_p_sd                    =   1.0369746578825E-04
(PID.TID 0000.0001) %MON surfExpan_theta_mean         =   3.6275678804228E-06
(PID.TID 0000.0001) %MON surfExpan_salt_mean          =  -3.4881641300473E-07
(PID.TID 0000.0001) // =======================================================
(PID.TID 0000.0001) // End MONITOR dynamic field statistics
(PID.TID 0000.0001) // =======================================================
 SH   5.2374313062148872        23.293787371337828     
 NH   10.429732992067670        25.556380726698649     
 SH   5.2374313062148872        23.293787371337828     
 NH   10.429732992067670        25.556380726698649     
 SH   5.2374313062148872        23.293787371337828     
 NH   10.429732992067670        25.556380726698649     
 SH   5.2374313062148872        23.293787371337828     
 NH   10.429732992067670        25.556380726698649     
 SH   5.2374313062148872        23.293787371337828     
 NH   10.429732992067670        25.556380726698649     
 SH   5.2374313062148872        23.293787371337828     
 NH   10.429732992067670        25.556380726698649     
 cg2d: Sum(rhs),rhsMax =   2.96761522948588E-02  8.14954899674280E+00
(PID.TID 0000.0001)                    cg2d_init_res =    1.81187296760008E-01
(PID.TID 0000.0001)                       cg2d_iters =    92
(PID.TID 0000.0001)                         cg2d_res =    6.70596488475020E-14
(PID.TID 0000.0001) // =======================================================
(PID.TID 0000.0001) // Begin MONITOR dynamic field statistics
(PID.TID 0000.0001) // =======================================================
(PID.TID 0000.0001) %MON time_tsnumber                =                     7
(PID.TID 0000.0001) %MON time_secondsf                =   3.0240000000000E+05
(PID.TID 0000.0001) %MON dynstat_eta_max              =   2.1719725779646E+00
(PID.TID 0000.0001) %MON dynstat_eta_min              =  -1.5701891826872E+00
(PID.TID 0000.0001) %MON dynstat_eta_mean             =  -4.1513167766283E-04
(PID.TID 0000.0001) %MON dynstat_eta_sd               =   5.7631442286431E-01
(PID.TID 0000.0001) %MON dynstat_eta_del2             =   2.4511537584835E-03
(PID.TID 0000.0001) %MON dynstat_uvel_max             =   2.0147887853039E-01
(PID.TID 0000.0001) %MON dynstat_uvel_min             =  -3.1674800595387E-01
(PID.TID 0000.0001) %MON dynstat_uvel_mean            =  -6.6438571817741E-04
(PID.TID 0000.0001) %MON dynstat_uvel_sd              =   7.2067771935472E-03
(PID.TID 0000.0001) %MON dynstat_uvel_del2            =   8.5535586080307E-05
(PID.TID 0000.0001) %MON dynstat_vvel_max             =   2.9004665152262E-01
(PID.TID 0000.0001) %MON dynstat_vvel_min             =  -4.3308736582257E-01
(PID.TID 0000.0001) %MON dynstat_vvel_mean            =   6.8702131376654E-04
(PID.TID 0000.0001) %MON dynstat_vvel_sd              =   1.0634343601998E-02
(PID.TID 0000.0001) %MON dynstat_vvel_del2            =   9.5993298160268E-05
(PID.TID 0000.0001) %MON dynstat_wvel_max             =   1.3424412741062E-03
(PID.TID 0000.0001) %MON dynstat_wvel_min             =  -8.4647974711531E-04
(PID.TID 0000.0001) %MON dynstat_wvel_mean            =   2.7274468181441E-22
(PID.TID 0000.0001) %MON dynstat_wvel_sd              =   4.3375166774507E-05
(PID.TID 0000.0001) %MON dynstat_wvel_del2            =   5.6954410311428E-07
(PID.TID 0000.0001) %MON dynstat_theta_max            =   2.9205506884541E+01
(PID.TID 0000.0001) %MON dynstat_theta_min            =  -1.8544075060148E+00
(PID.TID 0000.0001) %MON dynstat_theta_mean           =   3.4373929136450E+00
(PID.TID 0000.0001) %MON dynstat_theta_sd             =   4.1089746316008E+00
(PID.TID 0000.0001) %MON dynstat_theta_del2           =   5.0807717581459E-03
(PID.TID 0000.0001) %MON dynstat_salt_max             =   3.7442311616578E+01
(PID.TID 0000.0001) %MON dynstat_salt_min             =   3.1035275666011E+01
(PID.TID 0000.0001) %MON dynstat_salt_mean            =   3.4714992120818E+01
(PID.TID 0000.0001) %MON dynstat_salt_sd              =   2.7631340771658E-01
(PID.TID 0000.0001) %MON dynstat_salt_del2            =   8.5512558969496E-04
(PID.TID 0000.0001) %MON forcing_qnet_max             =   1.2796821780046E+02
(PID.TID 0000.0001) %MON forcing_qnet_min             =  -3.5210536649213E+01
(PID.TID 0000.0001) %MON forcing_qnet_mean            =  -7.5384661759518E-01
(PID.TID 0000.0001) %MON forcing_qnet_sd              =   2.2304563258924E+01
(PID.TID 0000.0001) %MON forcing_qnet_del2            =   1.1147077326980E-01
(PID.TID 0000.0001) %MON forcing_qsw_max              =   0.0000000000000E+00
(PID.TID 0000.0001) %MON forcing_qsw_min              =   0.0000000000000E+00
(PID.TID 0000.0001) %MON forcing_qsw_mean             =   0.0000000000000E+00
(PID.TID 0000.0001) %MON forcing_qsw_sd               =   0.0000000000000E+00
(PID.TID 0000.0001) %MON forcing_qsw_del2             =   0.0000000000000E+00
(PID.TID 0000.0001) %MON forcing_empmr_max            =   3.7600374110707E-05
(PID.TID 0000.0001) %MON forcing_empmr_min            =  -2.9685016686068E-05
(PID.TID 0000.0001) %MON forcing_empmr_mean           =   1.4208375872388E-06
(PID.TID 0000.0001) %MON forcing_empmr_sd             =   1.1923373923198E-05
(PID.TID 0000.0001) %MON forcing_empmr_del2           =   7.4400852469102E-08
(PID.TID 0000.0001) %MON forcing_fu_max               =   1.6004334390163E-01
(PID.TID 0000.0001) %MON forcing_fu_min               =  -1.0329221189022E-01
(PID.TID 0000.0001) %MON forcing_fu_mean              =   4.1280488583042E-03
(PID.TID 0000.0001) %MON forcing_fu_sd                =   5.5800359441598E-02
(PID.TID 0000.0001) %MON forcing_fu_del2              =   3.2370368543278E-04
(PID.TID 0000.0001) %MON forcing_fv_max               =   8.4633164107800E-02
(PID.TID 0000.0001) %MON forcing_fv_min               =  -7.0490099489689E-02
(PID.TID 0000.0001) %MON forcing_fv_mean              =   2.8803575798275E-03
(PID.TID 0000.0001) %MON forcing_fv_sd                =   2.2193297771215E-02
(PID.TID 0000.0001) %MON forcing_fv_del2              =   2.1170835219132E-04
(PID.TID 0000.0001) %MON advcfl_uvel_max              =   3.1244198342948E-02
(PID.TID 0000.0001) %MON advcfl_vvel_max              =   4.2070964646527E-02
(PID.TID 0000.0001) %MON advcfl_wvel_max              =   1.4920918447439E-01
(PID.TID 0000.0001) %MON advcfl_W_hf_max              =   1.6018044803868E-01
(PID.TID 0000.0001) %MON pe_b_mean                    =   3.8534203711743E-04
(PID.TID 0000.0001) %MON ke_max                       =   5.1350151781828E-02
(PID.TID 0000.0001) %MON ke_mean                      =   7.5848610572174E-05
(PID.TID 0000.0001) %MON ke_vol                       =   1.4101703507225E+18
(PID.TID 0000.0001) %MON vort_r_min                   =  -9.8868989320279E-07
(PID.TID 0000.0001) %MON vort_r_max                   =   9.6757676084979E-07
(PID.TID 0000.0001) %MON vort_a_mean                  =  -1.9976608796704E-05
(PID.TID 0000.0001) %MON vort_a_sd                    =   7.3718581204419E-05
(PID.TID 0000.0001) %MON vort_p_mean                  =  -2.3730263022063E-05
(PID.TID 0000.0001) %MON vort_p_sd                    =   1.0369748008364E-04
(PID.TID 0000.0001) %MON surfExpan_theta_mean         =  -1.1391226699764E-06
(PID.TID 0000.0001) %MON surfExpan_salt_mean          =  -5.6382536625715E-07
(PID.TID 0000.0001) // =======================================================
(PID.TID 0000.0001) // End MONITOR dynamic field statistics
(PID.TID 0000.0001) // =======================================================
 SH   5.2428205354539159        23.296819910707256     
 NH   10.420302030484436        25.555865454401328     
 SH   5.2428205354539159        23.296819910707256     
 NH   10.420302030484436        25.555865454401328     
 SH   5.2428205354539159        23.296819910707256     
 NH   10.420302030484436        25.555865454401328     
 SH   5.2428205354539159        23.296819910707256     
 NH   10.420302030484436        25.555865454401328     
 SH   5.2428205354539159        23.296819910707256     
 NH   10.420302030484436        25.555865454401328     
 SH   5.2428205354539159        23.296819910707256     
 NH   10.420302030484436        25.555865454401328     
 cg2d: Sum(rhs),rhsMax =   3.52960091511327E-02  7.83082484323215E+00
(PID.TID 0000.0001)                    cg2d_init_res =    1.92579070079406E-01
(PID.TID 0000.0001)                       cg2d_iters =    91
(PID.TID 0000.0001)                         cg2d_res =    9.34598422883787E-14
(PID.TID 0000.0001) // =======================================================
(PID.TID 0000.0001) // Begin MONITOR dynamic field statistics
(PID.TID 0000.0001) // =======================================================
(PID.TID 0000.0001) %MON time_tsnumber                =                     8
(PID.TID 0000.0001) %MON time_secondsf                =   3.4560000000000E+05
(PID.TID 0000.0001) %MON dynstat_eta_max              =   2.1848465549524E+00
(PID.TID 0000.0001) %MON dynstat_eta_min              =  -1.5225808556110E+00
(PID.TID 0000.0001) %MON dynstat_eta_mean             =  -4.7443620304333E-04
(PID.TID 0000.0001) %MON dynstat_eta_sd               =   5.7034225213613E-01
(PID.TID 0000.0001) %MON dynstat_eta_del2             =   2.3765097482273E-03
(PID.TID 0000.0001) %MON dynstat_uvel_max             =   2.2523897090113E-01
(PID.TID 0000.0001) %MON dynstat_uvel_min             =  -3.5444285233019E-01
(PID.TID 0000.0001) %MON dynstat_uvel_mean            =  -5.4647899175159E-04
(PID.TID 0000.0001) %MON dynstat_uvel_sd              =   8.2905867389163E-03
(PID.TID 0000.0001) %MON dynstat_uvel_del2            =   9.4933043840556E-05
(PID.TID 0000.0001) %MON dynstat_vvel_max             =   3.2710978169939E-01
(PID.TID 0000.0001) %MON dynstat_vvel_min             =  -4.8653184642680E-01
(PID.TID 0000.0001) %MON dynstat_vvel_mean            =   4.1878666585259E-04
(PID.TID 0000.0001) %MON dynstat_vvel_sd              =   1.1787869996807E-02
(PID.TID 0000.0001) %MON dynstat_vvel_del2            =   1.0486694289115E-04
(PID.TID 0000.0001) %MON dynstat_wvel_max             =   1.5147672522729E-03
(PID.TID 0000.0001) %MON dynstat_wvel_min             =  -9.5523697452885E-04
(PID.TID 0000.0001) %MON dynstat_wvel_mean            =   2.7452036333664E-22
(PID.TID 0000.0001) %MON dynstat_wvel_sd              =   4.8228583892518E-05
(PID.TID 0000.0001) %MON dynstat_wvel_del2            =   6.2868317830587E-07
(PID.TID 0000.0001) %MON dynstat_theta_max            =   2.9190504755965E+01
(PID.TID 0000.0001) %MON dynstat_theta_min            =  -1.8550752051289E+00
(PID.TID 0000.0001) %MON dynstat_theta_mean           =   3.4374356563426E+00
(PID.TID 0000.0001) %MON dynstat_theta_sd             =   4.1090517211820E+00
(PID.TID 0000.0001) %MON dynstat_theta_del2           =   5.0544186701262E-03
(PID.TID 0000.0001) %MON dynstat_salt_max             =   3.7442788328417E+01
(PID.TID 0000.0001) %MON dynstat_salt_min             =   3.1037441132682E+01
(PID.TID 0000.0001) %MON dynstat_salt_mean            =   3.4714999693517E+01
(PID.TID 0000.0001) %MON dynstat_salt_sd              =   2.7630950413678E-01
(PID.TID 0000.0001) %MON dynstat_salt_del2            =   8.5396826842129E-04
(PID.TID 0000.0001) %MON forcing_qnet_max             =   1.2707914012424E+02
(PID.TID 0000.0001) %MON forcing_qnet_min             =  -3.5213712222914E+01
(PID.TID 0000.0001) %MON forcing_qnet_mean            =  -7.5777766883448E-01
(PID.TID 0000.0001) %MON forcing_qnet_sd              =   2.2213225998383E+01
(PID.TID 0000.0001) %MON forcing_qnet_del2            =   1.1117824220471E-01
(PID.TID 0000.0001) %MON forcing_qsw_max              =   0.0000000000000E+00
(PID.TID 0000.0001) %MON forcing_qsw_min              =   0.0000000000000E+00
(PID.TID 0000.0001) %MON forcing_qsw_mean             =   0.0000000000000E+00
(PID.TID 0000.0001) %MON forcing_qsw_sd               =   0.0000000000000E+00
(PID.TID 0000.0001) %MON forcing_qsw_del2             =   0.0000000000000E+00
(PID.TID 0000.0001) %MON forcing_empmr_max            =   3.7600374110707E-05
(PID.TID 0000.0001) %MON forcing_empmr_min            =  -2.9685016686068E-05
(PID.TID 0000.0001) %MON forcing_empmr_mean           =   1.4208375872388E-06
(PID.TID 0000.0001) %MON forcing_empmr_sd             =   1.1923373923198E-05
(PID.TID 0000.0001) %MON forcing_empmr_del2           =   7.4400852469102E-08
(PID.TID 0000.0001) %MON forcing_fu_max               =   1.6004334390163E-01
(PID.TID 0000.0001) %MON forcing_fu_min               =  -1.0329221189022E-01
(PID.TID 0000.0001) %MON forcing_fu_mean              =   4.1280488583042E-03
(PID.TID 0000.0001) %MON forcing_fu_sd                =   5.5800359441598E-02
(PID.TID 0000.0001) %MON forcing_fu_del2              =   3.2370368543278E-04
(PID.TID 0000.0001) %MON forcing_fv_max               =   8.4633164107800E-02
(PID.TID 0000.0001) %MON forcing_fv_min               =  -7.0490099489689E-02
(PID.TID 0000.0001) %MON forcing_fv_mean              =   2.8803575798275E-03
(PID.TID 0000.0001) %MON forcing_fv_sd                =   2.2193297771215E-02
(PID.TID 0000.0001) %MON forcing_fv_del2              =   2.1170835219132E-04
(PID.TID 0000.0001) %MON advcfl_uvel_max              =   3.4962438819764E-02
(PID.TID 0000.0001) %MON advcfl_vvel_max              =   4.7262667364019E-02
(PID.TID 0000.0001) %MON advcfl_wvel_max              =   1.6844866929793E-01
(PID.TID 0000.0001) %MON advcfl_W_hf_max              =   1.8083460086395E-01
(PID.TID 0000.0001) %MON pe_b_mean                    =   3.7739711838511E-04
(PID.TID 0000.0001) %MON ke_max                       =   6.4831698075057E-02
(PID.TID 0000.0001) %MON ke_mean                      =   9.5169406672982E-05
(PID.TID 0000.0001) %MON ke_vol                       =   1.4101703507225E+18
(PID.TID 0000.0001) %MON vort_r_min                   =  -1.1040859992832E-06
(PID.TID 0000.0001) %MON vort_r_max                   =   1.0906130399558E-06
(PID.TID 0000.0001) %MON vort_a_mean                  =  -1.9976608796704E-05
(PID.TID 0000.0001) %MON vort_a_sd                    =   7.3718607356878E-05
(PID.TID 0000.0001) %MON vort_p_mean                  =  -2.3730263022063E-05
(PID.TID 0000.0001) %MON vort_p_sd                    =   1.0369749462026E-04
(PID.TID 0000.0001) %MON surfExpan_theta_mean         =  -3.7195162276941E-06
(PID.TID 0000.0001) %MON surfExpan_salt_mean          =  -6.0210038328473E-07
(PID.TID 0000.0001) // =======================================================
(PID.TID 0000.0001) // End MONITOR dynamic field statistics
(PID.TID 0000.0001) // =======================================================
 SH   5.2484427034470968        23.300089756607349     
 NH   10.411025112646882        25.556672457426544     
 SH   5.2484427034470968        23.300089756607349     
 NH   10.411025112646882        25.556672457426544     
 SH   5.2484427034470968        23.300089756607349     
 NH   10.411025112646882        25.556672457426544     
 SH   5.2484427034470968        23.300089756607349     
 NH   10.411025112646882        25.556672457426544     
 SH   5.2484427034470968        23.300089756607349     
 NH   10.411025112646882        25.556672457426544     
 SH   5.2484427034470968        23.300089756607349     
 NH   10.411025112646882        25.556672457426544     
 cg2d: Sum(rhs),rhsMax =   4.14104855979058E-02  7.50888256933137E+00
(PID.TID 0000.0001)                    cg2d_init_res =    2.03306936223436E-01
(PID.TID 0000.0001)                       cg2d_iters =    91
(PID.TID 0000.0001)                         cg2d_res =    8.52323976973682E-14
(PID.TID 0000.0001) // =======================================================
(PID.TID 0000.0001) // Begin MONITOR dynamic field statistics
(PID.TID 0000.0001) // =======================================================
(PID.TID 0000.0001) %MON time_tsnumber                =                     9
(PID.TID 0000.0001) %MON time_secondsf                =   3.8880000000000E+05
(PID.TID 0000.0001) %MON dynstat_eta_max              =   2.1655693067180E+00
(PID.TID 0000.0001) %MON dynstat_eta_min              =  -1.5002100781329E+00
(PID.TID 0000.0001) %MON dynstat_eta_mean             =  -5.3374072842342E-04
(PID.TID 0000.0001) %MON dynstat_eta_sd               =   5.6091659230361E-01
(PID.TID 0000.0001) %MON dynstat_eta_del2             =   2.3087343140694E-03
(PID.TID 0000.0001) %MON dynstat_uvel_max             =   2.4739113643155E-01
(PID.TID 0000.0001) %MON dynstat_uvel_min             =  -3.9012727029235E-01
(PID.TID 0000.0001) %MON dynstat_uvel_mean            =  -4.1175492058222E-04
(PID.TID 0000.0001) %MON dynstat_uvel_sd              =   9.3931051732121E-03
(PID.TID 0000.0001) %MON dynstat_uvel_del2            =   1.0356333139360E-04
(PID.TID 0000.0001) %MON dynstat_vvel_max             =   3.6284537676323E-01
(PID.TID 0000.0001) %MON dynstat_vvel_min             =  -5.3744853447692E-01
(PID.TID 0000.0001) %MON dynstat_vvel_mean            =   1.4019421414186E-04
(PID.TID 0000.0001) %MON dynstat_vvel_sd              =   1.2823270957517E-02
(PID.TID 0000.0001) %MON dynstat_vvel_del2            =   1.1222676719873E-04
(PID.TID 0000.0001) %MON dynstat_wvel_max             =   1.6806904016612E-03
(PID.TID 0000.0001) %MON dynstat_wvel_min             =  -1.0590297243845E-03
(PID.TID 0000.0001) %MON dynstat_wvel_mean            =   3.1251994791234E-23
(PID.TID 0000.0001) %MON dynstat_wvel_sd              =   5.2664188683287E-05
(PID.TID 0000.0001) %MON dynstat_wvel_del2            =   6.8113979072859E-07
(PID.TID 0000.0001) %MON dynstat_theta_max            =   2.9175507564028E+01
(PID.TID 0000.0001) %MON dynstat_theta_min            =  -1.8556474485723E+00
(PID.TID 0000.0001) %MON dynstat_theta_mean           =   3.4374913640216E+00
(PID.TID 0000.0001) %MON dynstat_theta_sd             =   4.1091809323089E+00
(PID.TID 0000.0001) %MON dynstat_theta_del2           =   5.0293699922613E-03
(PID.TID 0000.0001) %MON dynstat_salt_max             =   3.7443313566440E+01
(PID.TID 0000.0001) %MON dynstat_salt_min             =   3.1039214781438E+01
(PID.TID 0000.0001) %MON dynstat_salt_mean            =   3.4715006560992E+01
(PID.TID 0000.0001) %MON dynstat_salt_sd              =   2.7630868546207E-01
(PID.TID 0000.0001) %MON dynstat_salt_del2            =   8.5287570830452E-04
(PID.TID 0000.0001) %MON forcing_qnet_max             =   1.2607886868921E+02
(PID.TID 0000.0001) %MON forcing_qnet_min             =  -3.5215657986661E+01
(PID.TID 0000.0001) %MON forcing_qnet_mean            =  -7.5978021025805E-01
(PID.TID 0000.0001) %MON forcing_qnet_sd              =   2.2109654907788E+01
(PID.TID 0000.0001) %MON forcing_qnet_del2            =   1.1086708767505E-01
(PID.TID 0000.0001) %MON forcing_qsw_max              =   0.0000000000000E+00
(PID.TID 0000.0001) %MON forcing_qsw_min              =   0.0000000000000E+00
(PID.TID 0000.0001) %MON forcing_qsw_mean             =   0.0000000000000E+00
(PID.TID 0000.0001) %MON forcing_qsw_sd               =   0.0000000000000E+00
(PID.TID 0000.0001) %MON forcing_qsw_del2             =   0.0000000000000E+00
(PID.TID 0000.0001) %MON forcing_empmr_max            =   3.7600374110707E-05
(PID.TID 0000.0001) %MON forcing_empmr_min            =  -2.9685016686068E-05
(PID.TID 0000.0001) %MON forcing_empmr_mean           =   1.4208375872388E-06
(PID.TID 0000.0001) %MON forcing_empmr_sd             =   1.1923373923198E-05
(PID.TID 0000.0001) %MON forcing_empmr_del2           =   7.4400852469102E-08
(PID.TID 0000.0001) %MON forcing_fu_max               =   1.6004334390163E-01
(PID.TID 0000.0001) %MON forcing_fu_min               =  -1.0329221189022E-01
(PID.TID 0000.0001) %MON forcing_fu_mean              =   4.1280488583042E-03
(PID.TID 0000.0001) %MON forcing_fu_sd                =   5.5800359441598E-02
(PID.TID 0000.0001) %MON forcing_fu_del2              =   3.2370368543278E-04
(PID.TID 0000.0001) %MON forcing_fv_max               =   8.4633164107800E-02
(PID.TID 0000.0001) %MON forcing_fv_min               =  -7.0490099489689E-02
(PID.TID 0000.0001) %MON forcing_fv_mean              =   2.8803575798275E-03
(PID.TID 0000.0001) %MON forcing_fv_sd                =   2.2193297771215E-02
(PID.TID 0000.0001) %MON forcing_fv_del2              =   2.1170835219132E-04
(PID.TID 0000.0001) %MON advcfl_uvel_max              =   3.8482369526841E-02
(PID.TID 0000.0001) %MON advcfl_vvel_max              =   5.2208815305338E-02
(PID.TID 0000.0001) %MON advcfl_wvel_max              =   1.8700369594040E-01
(PID.TID 0000.0001) %MON advcfl_W_hf_max              =   2.0075396770072E-01
(PID.TID 0000.0001) %MON pe_b_mean                    =   3.6502629799471E-04
(PID.TID 0000.0001) %MON ke_max                       =   7.9169687548321E-02
(PID.TID 0000.0001) %MON ke_mean                      =   1.1563328703566E-04
(PID.TID 0000.0001) %MON ke_vol                       =   1.4101703507225E+18
(PID.TID 0000.0001) %MON vort_r_min                   =  -1.2120935323333E-06
(PID.TID 0000.0001) %MON vort_r_max                   =   1.2096787866094E-06
(PID.TID 0000.0001) %MON vort_a_mean                  =  -1.9976608796704E-05
(PID.TID 0000.0001) %MON vort_a_sd                    =   7.3718637442651E-05
(PID.TID 0000.0001) %MON vort_p_mean                  =  -2.3730263022063E-05
(PID.TID 0000.0001) %MON vort_p_sd                    =   1.0369751097242E-04
(PID.TID 0000.0001) %MON surfExpan_theta_mean         =  -4.5386329958348E-06
(PID.TID 0000.0001) %MON surfExpan_salt_mean          =  -5.2329507498690E-07
(PID.TID 0000.0001) // =======================================================
(PID.TID 0000.0001) // End MONITOR dynamic field statistics
(PID.TID 0000.0001) // =======================================================
 SH   5.2542185245013115        23.303193596682888     
 NH   10.402398986193816        25.558435083688721     
 SH   5.2542185245013115        23.303193596682888     
 NH   10.402398986193816        25.558435083688721     
 SH   5.2542185245013115        23.303193596682888     
 NH   10.402398986193816        25.558435083688721     
 SH   5.2542185245013115        23.303193596682888     
 NH   10.402398986193816        25.558435083688721     
 SH   5.2542185245013115        23.303193596682888     
 NH   10.402398986193816        25.558435083688721     
 SH   5.2542185245013115        23.303193596682888     
 NH   10.402398986193816        25.558435083688721     
 cg2d: Sum(rhs),rhsMax =   4.84121313740893E-02  7.13656002851585E+00
(PID.TID 0000.0001)                    cg2d_init_res =    2.17704161228659E-01
(PID.TID 0000.0001)                       cg2d_iters =    90
(PID.TID 0000.0001)                         cg2d_res =    8.79329318950429E-14
(PID.TID 0000.0001) // =======================================================
(PID.TID 0000.0001) // Begin MONITOR dynamic field statistics
(PID.TID 0000.0001) // =======================================================
(PID.TID 0000.0001) %MON time_tsnumber                =                    10
(PID.TID 0000.0001) %MON time_secondsf                =   4.3200000000000E+05
(PID.TID 0000.0001) %MON dynstat_eta_max              =   2.1200086277650E+00
(PID.TID 0000.0001) %MON dynstat_eta_min              =  -1.4863484840164E+00
(PID.TID 0000.0001) %MON dynstat_eta_mean             =  -5.9304525380401E-04
(PID.TID 0000.0001) %MON dynstat_eta_sd               =   5.4980045572357E-01
(PID.TID 0000.0001) %MON dynstat_eta_del2             =   2.2465475942063E-03
(PID.TID 0000.0001) %MON dynstat_uvel_max             =   2.6767141169990E-01
(PID.TID 0000.0001) %MON dynstat_uvel_min             =  -4.2372242809304E-01
(PID.TID 0000.0001) %MON dynstat_uvel_mean            =  -2.6690275089628E-04
(PID.TID 0000.0001) %MON dynstat_uvel_sd              =   1.0504014342646E-02
(PID.TID 0000.0001) %MON dynstat_uvel_del2            =   1.1144601710585E-04
(PID.TID 0000.0001) %MON dynstat_vvel_max             =   3.9719833863689E-01
(PID.TID 0000.0001) %MON dynstat_vvel_min             =  -5.8561987742036E-01
(PID.TID 0000.0001) %MON dynstat_vvel_mean            =  -1.1525827137561E-04
(PID.TID 0000.0001) %MON dynstat_vvel_sd              =   1.3738043602373E-02
(PID.TID 0000.0001) %MON dynstat_vvel_del2            =   1.1805563154578E-04
(PID.TID 0000.0001) %MON dynstat_wvel_max             =   1.8394117897145E-03
(PID.TID 0000.0001) %MON dynstat_wvel_min             =  -1.1571192306915E-03
(PID.TID 0000.0001) %MON dynstat_wvel_mean            =   0.0000000000000E+00
(PID.TID 0000.0001) %MON dynstat_wvel_sd              =   5.6672869958076E-05
(PID.TID 0000.0001) %MON dynstat_wvel_del2            =   7.2681274518937E-07
(PID.TID 0000.0001) %MON dynstat_theta_max            =   2.9160219295750E+01
(PID.TID 0000.0001) %MON dynstat_theta_min            =  -1.8561359424982E+00
(PID.TID 0000.0001) %MON dynstat_theta_mean           =   3.4375446435902E+00
(PID.TID 0000.0001) %MON dynstat_theta_sd             =   4.1093042422106E+00
(PID.TID 0000.0001) %MON dynstat_theta_del2           =   5.0063059792444E-03
(PID.TID 0000.0001) %MON dynstat_salt_max             =   3.7443882481303E+01
(PID.TID 0000.0001) %MON dynstat_salt_min             =   3.1040537268621E+01
(PID.TID 0000.0001) %MON dynstat_salt_mean            =   3.4715011892756E+01
(PID.TID 0000.0001) %MON dynstat_salt_sd              =   2.7631117344038E-01
(PID.TID 0000.0001) %MON dynstat_salt_del2            =   8.5189072398108E-04
(PID.TID 0000.0001) %MON forcing_qnet_max             =   1.2505143734624E+02
(PID.TID 0000.0001) %MON forcing_qnet_min             =  -3.5220935604937E+01
(PID.TID 0000.0001) %MON forcing_qnet_mean            =  -7.6058777907702E-01
(PID.TID 0000.0001) %MON forcing_qnet_sd              =   2.2004049032698E+01
(PID.TID 0000.0001) %MON forcing_qnet_del2            =   1.1057200886516E-01
(PID.TID 0000.0001) %MON forcing_qsw_max              =   0.0000000000000E+00
(PID.TID 0000.0001) %MON forcing_qsw_min              =   0.0000000000000E+00
(PID.TID 0000.0001) %MON forcing_qsw_mean             =   0.0000000000000E+00
(PID.TID 0000.0001) %MON forcing_qsw_sd               =   0.0000000000000E+00
(PID.TID 0000.0001) %MON forcing_qsw_del2             =   0.0000000000000E+00
(PID.TID 0000.0001) %MON forcing_empmr_max            =   3.7600374110707E-05
(PID.TID 0000.0001) %MON forcing_empmr_min            =  -2.9685016686068E-05
(PID.TID 0000.0001) %MON forcing_empmr_mean           =   1.4208375872388E-06
(PID.TID 0000.0001) %MON forcing_empmr_sd             =   1.1923373923198E-05
(PID.TID 0000.0001) %MON forcing_empmr_del2           =   7.4400852469102E-08
(PID.TID 0000.0001) %MON forcing_fu_max               =   1.6004334390163E-01
(PID.TID 0000.0001) %MON forcing_fu_min               =  -1.0329221189022E-01
(PID.TID 0000.0001) %MON forcing_fu_mean              =   4.1280488583042E-03
(PID.TID 0000.0001) %MON forcing_fu_sd                =   5.5800359441598E-02
(PID.TID 0000.0001) %MON forcing_fu_del2              =   3.2370368543278E-04
(PID.TID 0000.0001) %MON forcing_fv_max               =   8.4633164107800E-02
(PID.TID 0000.0001) %MON forcing_fv_min               =  -7.0490099489689E-02
(PID.TID 0000.0001) %MON forcing_fv_mean              =   2.8803575798275E-03
(PID.TID 0000.0001) %MON forcing_fv_sd                =   2.2193297771215E-02
(PID.TID 0000.0001) %MON forcing_fv_del2              =   2.1170835219132E-04
(PID.TID 0000.0001) %MON advcfl_uvel_max              =   4.1796214457061E-02
(PID.TID 0000.0001) %MON advcfl_vvel_max              =   5.6888274984565E-02
(PID.TID 0000.0001) %MON advcfl_wvel_max              =   2.0477291630232E-01
(PID.TID 0000.0001) %MON advcfl_W_hf_max              =   2.1982974838337E-01
(PID.TID 0000.0001) %MON pe_b_mean                    =   3.5070170971349E-04
(PID.TID 0000.0001) %MON ke_max                       =   9.4102858798763E-02
(PID.TID 0000.0001) %MON ke_mean                      =   1.3684384412056E-04
(PID.TID 0000.0001) %MON ke_vol                       =   1.4101703507225E+18
(PID.TID 0000.0001) %MON vort_r_min                   =  -1.3122849175233E-06
(PID.TID 0000.0001) %MON vort_r_max                   =   1.3247598202749E-06
(PID.TID 0000.0001) %MON vort_a_mean                  =  -1.9976608796704E-05
(PID.TID 0000.0001) %MON vort_a_sd                    =   7.3718669744645E-05
(PID.TID 0000.0001) %MON vort_p_mean                  =  -2.3730263022063E-05
(PID.TID 0000.0001) %MON vort_p_sd                    =   1.0369752783353E-04
(PID.TID 0000.0001) %MON surfExpan_theta_mean         =  -4.1708111018297E-06
(PID.TID 0000.0001) %MON surfExpan_salt_mean          =  -3.8545370401754E-07
(PID.TID 0000.0001) // =======================================================
(PID.TID 0000.0001) // End MONITOR dynamic field statistics
(PID.TID 0000.0001) // =======================================================
 SH   5.2600560160905161        23.305954699482413     
 NH   10.394719164579897        25.560609462481011     
 SH   5.2600560160905161        23.305954699482413     
 NH   10.394719164579897        25.560609462481011     
 SH   5.2600560160905161        23.305954699482413     
 NH   10.394719164579897        25.560609462481011     
 SH   5.2600560160905161        23.305954699482413     
 NH   10.394719164579897        25.560609462481011     
 SH   5.2600560160905161        23.305954699482413     
 NH   10.394719164579897        25.560609462481011     
 SH   5.2600560160905161        23.305954699482413     
 NH   10.394719164579897        25.560609462481011     
 cg2d: Sum(rhs),rhsMax =   5.64833585626787E-02  6.72845417653210E+00
(PID.TID 0000.0001)                    cg2d_init_res =    2.36408292262729E-01
(PID.TID 0000.0001)                       cg2d_iters =    91
(PID.TID 0000.0001)                         cg2d_res =    8.09589580458956E-14
(PID.TID 0000.0001) // =======================================================
(PID.TID 0000.0001) // Begin MONITOR dynamic field statistics
(PID.TID 0000.0001) // =======================================================
(PID.TID 0000.0001) %MON time_tsnumber                =                    11
(PID.TID 0000.0001) %MON time_secondsf                =   4.7520000000000E+05
(PID.TID 0000.0001) %MON dynstat_eta_max              =   2.0597153371890E+00
(PID.TID 0000.0001) %MON dynstat_eta_min              =  -1.4666063220240E+00
(PID.TID 0000.0001) %MON dynstat_eta_mean             =  -6.5234977918455E-04
(PID.TID 0000.0001) %MON dynstat_eta_sd               =   5.3832928380127E-01
(PID.TID 0000.0001) %MON dynstat_eta_del2             =   2.1886519742888E-03
(PID.TID 0000.0001) %MON dynstat_uvel_max             =   2.8600204528339E-01
(PID.TID 0000.0001) %MON dynstat_uvel_min             =  -4.5513381945040E-01
(PID.TID 0000.0001) %MON dynstat_uvel_mean            =  -1.2001147063818E-04
(PID.TID 0000.0001) %MON dynstat_uvel_sd              =   1.1612728785136E-02
(PID.TID 0000.0001) %MON dynstat_uvel_del2            =   1.1861554282569E-04
(PID.TID 0000.0001) %MON dynstat_vvel_max             =   4.3010178957594E-01
(PID.TID 0000.0001) %MON dynstat_vvel_min             =  -6.3080065402683E-01
(PID.TID 0000.0001) %MON dynstat_vvel_mean            =  -3.2068690930564E-04
(PID.TID 0000.0001) %MON dynstat_vvel_sd              =   1.4532369511034E-02
(PID.TID 0000.0001) %MON dynstat_vvel_del2            =   1.2237475163798E-04
(PID.TID 0000.0001) %MON dynstat_wvel_max             =   1.9901781563175E-03
(PID.TID 0000.0001) %MON dynstat_wvel_min             =  -1.2487055822473E-03
(PID.TID 0000.0001) %MON dynstat_wvel_mean            =  -7.3868351324735E-23
(PID.TID 0000.0001) %MON dynstat_wvel_sd              =   6.0255638008321E-05
(PID.TID 0000.0001) %MON dynstat_wvel_del2            =   7.6574681975252E-07
(PID.TID 0000.0001) %MON dynstat_theta_max            =   2.9144624021242E+01
(PID.TID 0000.0001) %MON dynstat_theta_min            =  -1.8565469971482E+00
(PID.TID 0000.0001) %MON dynstat_theta_mean           =   3.4375868873925E+00
(PID.TID 0000.0001) %MON dynstat_theta_sd             =   4.1093901293208E+00
(PID.TID 0000.0001) %MON dynstat_theta_del2           =   4.9859746875011E-03
(PID.TID 0000.0001) %MON dynstat_salt_max             =   3.7444483389858E+01
(PID.TID 0000.0001) %MON dynstat_salt_min             =   3.1041428936835E+01
(PID.TID 0000.0001) %MON dynstat_salt_mean            =   3.4715015441422E+01
(PID.TID 0000.0001) %MON dynstat_salt_sd              =   2.7631650484387E-01
(PID.TID 0000.0001) %MON dynstat_salt_del2            =   8.5103088771011E-04
(PID.TID 0000.0001) %MON forcing_qnet_max             =   1.2407806307298E+02
(PID.TID 0000.0001) %MON forcing_qnet_min             =  -3.5231094919047E+01
(PID.TID 0000.0001) %MON forcing_qnet_mean            =  -7.6080831018665E-01
(PID.TID 0000.0001) %MON forcing_qnet_sd              =   2.1905586495972E+01
(PID.TID 0000.0001) %MON forcing_qnet_del2            =   1.1031612360114E-01
(PID.TID 0000.0001) %MON forcing_qsw_max              =   0.0000000000000E+00
(PID.TID 0000.0001) %MON forcing_qsw_min              =   0.0000000000000E+00
(PID.TID 0000.0001) %MON forcing_qsw_mean             =   0.0000000000000E+00
(PID.TID 0000.0001) %MON forcing_qsw_sd               =   0.0000000000000E+00
(PID.TID 0000.0001) %MON forcing_qsw_del2             =   0.0000000000000E+00
(PID.TID 0000.0001) %MON forcing_empmr_max            =   3.7600374110707E-05
(PID.TID 0000.0001) %MON forcing_empmr_min            =  -2.9685016686068E-05
(PID.TID 0000.0001) %MON forcing_empmr_mean           =   1.4208375872388E-06
(PID.TID 0000.0001) %MON forcing_empmr_sd             =   1.1923373923198E-05
(PID.TID 0000.0001) %MON forcing_empmr_del2           =   7.4400852469102E-08
(PID.TID 0000.0001) %MON forcing_fu_max               =   1.6004334390163E-01
(PID.TID 0000.0001) %MON forcing_fu_min               =  -1.0329221189022E-01
(PID.TID 0000.0001) %MON forcing_fu_mean              =   4.1280488583042E-03
(PID.TID 0000.0001) %MON forcing_fu_sd                =   5.5800359441598E-02
(PID.TID 0000.0001) %MON forcing_fu_del2              =   3.2370368543278E-04
(PID.TID 0000.0001) %MON forcing_fv_max               =   8.4633164107800E-02
(PID.TID 0000.0001) %MON forcing_fv_min               =  -7.0490099489689E-02
(PID.TID 0000.0001) %MON forcing_fv_mean              =   2.8803575798275E-03
(PID.TID 0000.0001) %MON forcing_fv_sd                =   2.2193297771215E-02
(PID.TID 0000.0001) %MON forcing_fv_del2              =   2.1170835219132E-04
(PID.TID 0000.0001) %MON advcfl_uvel_max              =   4.4894651458556E-02
(PID.TID 0000.0001) %MON advcfl_vvel_max              =   6.1277225125613E-02
(PID.TID 0000.0001) %MON advcfl_wvel_max              =   2.2167117471616E-01
(PID.TID 0000.0001) %MON advcfl_W_hf_max              =   2.3797052579823E-01
(PID.TID 0000.0001) %MON pe_b_mean                    =   3.3622022514142E-04
(PID.TID 0000.0001) %MON ke_max                       =   1.0934528485580E-01
(PID.TID 0000.0001) %MON ke_mean                      =   1.5839513066483E-04
(PID.TID 0000.0001) %MON ke_vol                       =   1.4101703507225E+18
(PID.TID 0000.0001) %MON vort_r_min                   =  -1.4042276760702E-06
(PID.TID 0000.0001) %MON vort_r_max                   =   1.4356470549528E-06
(PID.TID 0000.0001) %MON vort_a_mean                  =  -1.9976608796704E-05
(PID.TID 0000.0001) %MON vort_a_sd                    =   7.3718702142423E-05
(PID.TID 0000.0001) %MON vort_p_mean                  =  -2.3730263022063E-05
(PID.TID 0000.0001) %MON vort_p_sd                    =   1.0369754133613E-04
(PID.TID 0000.0001) %MON surfExpan_theta_mean         =  -3.1880050322195E-06
(PID.TID 0000.0001) %MON surfExpan_salt_mean          =  -2.3688215371842E-07
(PID.TID 0000.0001) // =======================================================
(PID.TID 0000.0001) // End MONITOR dynamic field statistics
(PID.TID 0000.0001) // =======================================================
 SH   5.2658415504948266        23.308349811336029     
 NH   10.388009329980036        25.562710877846030     
 SH   5.2658415504948266        23.308349811336029     
 NH   10.388009329980036        25.562710877846030     
 SH   5.2658415504948266        23.308349811336029     
 NH   10.388009329980036        25.562710877846030     
 SH   5.2658415504948266        23.308349811336029     
 NH   10.388009329980036        25.562710877846030     
 SH   5.2658415504948266        23.308349811336029     
 NH   10.388009329980036        25.562710877846030     
 SH   5.2658415504948266        23.308349811336029     
 NH   10.388009329980036        25.562710877846030     
 cg2d: Sum(rhs),rhsMax =   6.59052232508555E-02  6.29078057157014E+00
(PID.TID 0000.0001)                    cg2d_init_res =    2.59938379695364E-01
(PID.TID 0000.0001)                       cg2d_iters =    92
(PID.TID 0000.0001)                         cg2d_res =    7.20733873909945E-14
(PID.TID 0000.0001) // =======================================================
(PID.TID 0000.0001) // Begin MONITOR dynamic field statistics
(PID.TID 0000.0001) // =======================================================
(PID.TID 0000.0001) %MON time_tsnumber                =                    12
(PID.TID 0000.0001) %MON time_secondsf                =   5.1840000000000E+05
(PID.TID 0000.0001) %MON dynstat_eta_max              =   1.9933384919209E+00
(PID.TID 0000.0001) %MON dynstat_eta_min              =  -1.4362333820750E+00
(PID.TID 0000.0001) %MON dynstat_eta_mean             =  -7.1165430456476E-04
(PID.TID 0000.0001) %MON dynstat_eta_sd               =   5.2792960642928E-01
(PID.TID 0000.0001) %MON dynstat_eta_del2             =   2.1329429260278E-03
(PID.TID 0000.0001) %MON dynstat_uvel_max             =   3.0258268260052E-01
(PID.TID 0000.0001) %MON dynstat_uvel_min             =  -4.8424270491217E-01
(PID.TID 0000.0001) %MON dynstat_uvel_mean            =   2.0690622322627E-05
(PID.TID 0000.0001) %MON dynstat_uvel_sd              =   1.2708201163843E-02
(PID.TID 0000.0001) %MON dynstat_uvel_del2            =   1.2511772935793E-04
(PID.TID 0000.0001) %MON dynstat_vvel_max             =   4.6145845990545E-01
(PID.TID 0000.0001) %MON dynstat_vvel_min             =  -6.7277794404325E-01
(PID.TID 0000.0001) %MON dynstat_vvel_mean            =  -4.6075021397621E-04
(PID.TID 0000.0001) %MON dynstat_vvel_sd              =   1.5207909704012E-02
(PID.TID 0000.0001) %MON dynstat_vvel_del2            =   1.2524260662964E-04
(PID.TID 0000.0001) %MON dynstat_wvel_max             =   2.1322348759606E-03
(PID.TID 0000.0001) %MON dynstat_wvel_min             =  -1.3330403698415E-03
(PID.TID 0000.0001) %MON dynstat_wvel_mean            =  -4.2616356533501E-22
(PID.TID 0000.0001) %MON dynstat_wvel_sd              =   6.3419082433107E-05
(PID.TID 0000.0001) %MON dynstat_wvel_del2            =   7.9810230050557E-07
(PID.TID 0000.0001) %MON dynstat_theta_max            =   2.9128894014533E+01
(PID.TID 0000.0001) %MON dynstat_theta_min            =  -1.8568874112842E+00
(PID.TID 0000.0001) %MON dynstat_theta_mean           =   3.4376153184805E+00
(PID.TID 0000.0001) %MON dynstat_theta_sd             =   4.1094298915102E+00
(PID.TID 0000.0001) %MON dynstat_theta_del2           =   4.9686362016618E-03
(PID.TID 0000.0001) %MON dynstat_salt_max             =   3.7445102167109E+01
(PID.TID 0000.0001) %MON dynstat_salt_min             =   3.1041966269490E+01
(PID.TID 0000.0001) %MON dynstat_salt_mean            =   3.4715017393511E+01
(PID.TID 0000.0001) %MON dynstat_salt_sd              =   2.7632366252471E-01
(PID.TID 0000.0001) %MON dynstat_salt_del2            =   8.5030327895048E-04
(PID.TID 0000.0001) %MON forcing_qnet_max             =   1.2320753160877E+02
(PID.TID 0000.0001) %MON forcing_qnet_min             =  -3.5245544452559E+01
(PID.TID 0000.0001) %MON forcing_qnet_mean            =  -7.6092504486290E-01
(PID.TID 0000.0001) %MON forcing_qnet_sd              =   2.1819375878680E+01
(PID.TID 0000.0001) %MON forcing_qnet_del2            =   1.1010651995222E-01
(PID.TID 0000.0001) %MON forcing_qsw_max              =   0.0000000000000E+00
(PID.TID 0000.0001) %MON forcing_qsw_min              =   0.0000000000000E+00
(PID.TID 0000.0001) %MON forcing_qsw_mean             =   0.0000000000000E+00
(PID.TID 0000.0001) %MON forcing_qsw_sd               =   0.0000000000000E+00
(PID.TID 0000.0001) %MON forcing_qsw_del2             =   0.0000000000000E+00
(PID.TID 0000.0001) %MON forcing_empmr_max            =   3.7600374110707E-05
(PID.TID 0000.0001) %MON forcing_empmr_min            =  -2.9685016686068E-05
(PID.TID 0000.0001) %MON forcing_empmr_mean           =   1.4208375872388E-06
(PID.TID 0000.0001) %MON forcing_empmr_sd             =   1.1923373923198E-05
(PID.TID 0000.0001) %MON forcing_empmr_del2           =   7.4400852469102E-08
(PID.TID 0000.0001) %MON forcing_fu_max               =   1.6004334390163E-01
(PID.TID 0000.0001) %MON forcing_fu_min               =  -1.0329221189022E-01
(PID.TID 0000.0001) %MON forcing_fu_mean              =   4.1280488583042E-03
(PID.TID 0000.0001) %MON forcing_fu_sd                =   5.5800359441598E-02
(PID.TID 0000.0001) %MON forcing_fu_del2              =   3.2370368543278E-04
(PID.TID 0000.0001) %MON forcing_fv_max               =   8.4633164107800E-02
(PID.TID 0000.0001) %MON forcing_fv_min               =  -7.0490099489689E-02
(PID.TID 0000.0001) %MON forcing_fv_mean              =   2.8803575798275E-03
(PID.TID 0000.0001) %MON forcing_fv_sd                =   2.2193297771215E-02
(PID.TID 0000.0001) %MON forcing_fv_del2              =   2.1170835219132E-04
(PID.TID 0000.0001) %MON advcfl_uvel_max              =   4.7765968006141E-02
(PID.TID 0000.0001) %MON advcfl_vvel_max              =   6.5354982233313E-02
(PID.TID 0000.0001) %MON advcfl_wvel_max              =   2.3761600433511E-01
(PID.TID 0000.0001) %MON advcfl_W_hf_max              =   2.5508776935975E-01
(PID.TID 0000.0001) %MON pe_b_mean                    =   3.2335532112406E-04
(PID.TID 0000.0001) %MON ke_max                       =   1.2460750625796E-01
(PID.TID 0000.0001) %MON ke_mean                      =   1.7987858377267E-04
(PID.TID 0000.0001) %MON ke_vol                       =   1.4101703507225E+18
(PID.TID 0000.0001) %MON vort_r_min                   =  -1.4876125792616E-06
(PID.TID 0000.0001) %MON vort_r_max                   =   1.5419742996879E-06
(PID.TID 0000.0001) %MON vort_a_mean                  =  -1.9976608796704E-05
(PID.TID 0000.0001) %MON vort_a_sd                    =   7.3718732502599E-05
(PID.TID 0000.0001) %MON vort_p_mean                  =  -2.3730263022063E-05
(PID.TID 0000.0001) %MON vort_p_sd                    =   1.0369754685528E-04
(PID.TID 0000.0001) %MON surfExpan_theta_mean         =  -2.0620681939083E-06
(PID.TID 0000.0001) %MON surfExpan_salt_mean          =  -1.1196801934357E-07
(PID.TID 0000.0001) // =======================================================
(PID.TID 0000.0001) // End MONITOR dynamic field statistics
(PID.TID 0000.0001) // =======================================================
 SH   5.2714430544095876        23.310433760377407     
 NH   10.382050898566149        25.564436935161382     
 SH   5.2714430544095876        23.310433760377407     
 NH   10.382050898566149        25.564436935161382     
 SH   5.2714430544095876        23.310433760377407     
 NH   10.382050898566149        25.564436935161382     
 SH   5.2714430544095876        23.310433760377407     
 NH   10.382050898566149        25.564436935161382     
 SH   5.2714430544095876        23.310433760377407     
 NH   10.382050898566149        25.564436935161382     
 SH   5.2714430544095876        23.310433760377407     
 NH   10.382050898566149        25.564436935161382     
 cg2d: Sum(rhs),rhsMax =   7.71240843778237E-02  5.82366597646846E+00
(PID.TID 0000.0001)                    cg2d_init_res =    2.86517800985724E-01
(PID.TID 0000.0001)                       cg2d_iters =    92
(PID.TID 0000.0001)                         cg2d_res =    7.20969904697014E-14
(PID.TID 0000.0001) // =======================================================
(PID.TID 0000.0001) // Begin MONITOR dynamic field statistics
(PID.TID 0000.0001) // =======================================================
(PID.TID 0000.0001) %MON time_tsnumber                =                    13
(PID.TID 0000.0001) %MON time_secondsf                =   5.6160000000000E+05
(PID.TID 0000.0001) %MON dynstat_eta_max              =   1.9252900225607E+00
(PID.TID 0000.0001) %MON dynstat_eta_min              =  -1.4041629877695E+00
(PID.TID 0000.0001) %MON dynstat_eta_mean             =  -7.7095882994514E-04
(PID.TID 0000.0001) %MON dynstat_eta_sd               =   5.1982110588647E-01
(PID.TID 0000.0001) %MON dynstat_eta_del2             =   2.0789829036003E-03
(PID.TID 0000.0001) %MON dynstat_uvel_max             =   3.1862388943431E-01
(PID.TID 0000.0001) %MON dynstat_uvel_min             =  -5.1091779695653E-01
(PID.TID 0000.0001) %MON dynstat_uvel_mean            =   1.4839064404524E-04
(PID.TID 0000.0001) %MON dynstat_uvel_sd              =   1.3778666674062E-02
(PID.TID 0000.0001) %MON dynstat_uvel_del2            =   1.3099828539679E-04
(PID.TID 0000.0001) %MON dynstat_vvel_max             =   4.9114755507347E-01
(PID.TID 0000.0001) %MON dynstat_vvel_min             =  -7.1136391293612E-01
(PID.TID 0000.0001) %MON dynstat_vvel_mean            =  -5.3225847567421E-04
(PID.TID 0000.0001) %MON dynstat_vvel_sd              =   1.5768029242752E-02
(PID.TID 0000.0001) %MON dynstat_vvel_del2            =   1.2675311206501E-04
(PID.TID 0000.0001) %MON dynstat_wvel_max             =   2.2648069784473E-03
(PID.TID 0000.0001) %MON dynstat_wvel_min             =  -1.4093440213760E-03
(PID.TID 0000.0001) %MON dynstat_wvel_mean            =  -4.0343484185048E-22
(PID.TID 0000.0001) %MON dynstat_wvel_sd              =   6.6173099690389E-05
(PID.TID 0000.0001) %MON dynstat_wvel_del2            =   8.2411736064434E-07
(PID.TID 0000.0001) %MON dynstat_theta_max            =   2.9113271989356E+01
(PID.TID 0000.0001) %MON dynstat_theta_min            =  -1.8571681556942E+00
(PID.TID 0000.0001) %MON dynstat_theta_mean           =   3.4376313684328E+00
(PID.TID 0000.0001) %MON dynstat_theta_sd             =   4.1094303815542E+00
(PID.TID 0000.0001) %MON dynstat_theta_del2           =   4.9544593906781E-03
(PID.TID 0000.0001) %MON dynstat_salt_max             =   3.7445726113599E+01
(PID.TID 0000.0001) %MON dynstat_salt_min             =   3.1042267592213E+01
(PID.TID 0000.0001) %MON dynstat_salt_mean            =   3.4715018201702E+01
(PID.TID 0000.0001) %MON dynstat_salt_sd              =   2.7633136017998E-01
(PID.TID 0000.0001) %MON dynstat_salt_del2            =   8.4970596106316E-04
(PID.TID 0000.0001) %MON forcing_qnet_max             =   1.2244717623007E+02
(PID.TID 0000.0001) %MON forcing_qnet_min             =  -3.5262546337106E+01
(PID.TID 0000.0001) %MON forcing_qnet_mean            =  -7.6131389473867E-01
(PID.TID 0000.0001) %MON forcing_qnet_sd              =   2.1745734216244E+01
(PID.TID 0000.0001) %MON forcing_qnet_del2            =   1.0993619139214E-01
(PID.TID 0000.0001) %MON forcing_qsw_max              =   0.0000000000000E+00
(PID.TID 0000.0001) %MON forcing_qsw_min              =   0.0000000000000E+00
(PID.TID 0000.0001) %MON forcing_qsw_mean             =   0.0000000000000E+00
(PID.TID 0000.0001) %MON forcing_qsw_sd               =   0.0000000000000E+00
(PID.TID 0000.0001) %MON forcing_qsw_del2             =   0.0000000000000E+00
(PID.TID 0000.0001) %MON forcing_empmr_max            =   3.7600374110707E-05
(PID.TID 0000.0001) %MON forcing_empmr_min            =  -2.9685016686068E-05
(PID.TID 0000.0001) %MON forcing_empmr_mean           =   1.4208375872388E-06
(PID.TID 0000.0001) %MON forcing_empmr_sd             =   1.1923373923198E-05
(PID.TID 0000.0001) %MON forcing_empmr_del2           =   7.4400852469102E-08
(PID.TID 0000.0001) %MON forcing_fu_max               =   1.6004334390163E-01
(PID.TID 0000.0001) %MON forcing_fu_min               =  -1.0329221189022E-01
(PID.TID 0000.0001) %MON forcing_fu_mean              =   4.1280488583042E-03
(PID.TID 0000.0001) %MON forcing_fu_sd                =   5.5800359441598E-02
(PID.TID 0000.0001) %MON forcing_fu_del2              =   3.2370368543278E-04
(PID.TID 0000.0001) %MON forcing_fv_max               =   8.4633164107800E-02
(PID.TID 0000.0001) %MON forcing_fv_min               =  -7.0490099489689E-02
(PID.TID 0000.0001) %MON forcing_fv_mean              =   2.8803575798275E-03
(PID.TID 0000.0001) %MON forcing_fv_sd                =   2.2193297771215E-02
(PID.TID 0000.0001) %MON forcing_fv_del2              =   2.1170835219132E-04
(PID.TID 0000.0001) %MON advcfl_uvel_max              =   5.0397213826111E-02
(PID.TID 0000.0001) %MON advcfl_vvel_max              =   6.9103299688985E-02
(PID.TID 0000.0001) %MON advcfl_wvel_max              =   2.5252213837202E-01
(PID.TID 0000.0001) %MON advcfl_W_hf_max              =   2.7108994266408E-01
(PID.TID 0000.0001) %MON pe_b_mean                    =   3.1349885560406E-04
(PID.TID 0000.0001) %MON ke_max                       =   1.3984572689719E-01
(PID.TID 0000.0001) %MON ke_mean                      =   2.0090360548087E-04
(PID.TID 0000.0001) %MON ke_vol                       =   1.4101703507225E+18
(PID.TID 0000.0001) %MON vort_r_min                   =  -1.5622409879933E-06
(PID.TID 0000.0001) %MON vort_r_max                   =   1.6432383578417E-06
(PID.TID 0000.0001) %MON vort_a_mean                  =  -1.9976608796704E-05
(PID.TID 0000.0001) %MON vort_a_sd                    =   7.3718759099823E-05
(PID.TID 0000.0001) %MON vort_p_mean                  =  -2.3730263022063E-05
(PID.TID 0000.0001) %MON vort_p_sd                    =   1.0369754062237E-04
(PID.TID 0000.0001) %MON surfExpan_theta_mean         =  -1.1080289339503E-06
(PID.TID 0000.0001) %MON surfExpan_salt_mean          =  -2.9476248852617E-08
(PID.TID 0000.0001) // =======================================================
(PID.TID 0000.0001) // End MONITOR dynamic field statistics
(PID.TID 0000.0001) // =======================================================
 SH   5.2767182536634323        23.312290909546562     
 NH   10.376476530877255        25.565676623658590     
 SH   5.2767182536634323        23.312290909546562     
 NH   10.376476530877255        25.565676623658590     
 SH   5.2767182536634323        23.312290909546562     
 NH   10.376476530877255        25.565676623658590     
 SH   5.2767182536634323        23.312290909546562     
 NH   10.376476530877255        25.565676623658590     
 SH   5.2767182536634323        23.312290909546562     
 NH   10.376476530877255        25.565676623658590     
 SH   5.2767182536634323        23.312290909546562     
 NH   10.376476530877255        25.565676623658590     
 cg2d: Sum(rhs),rhsMax =   9.07868183797951E-02  5.32780554441237E+00
(PID.TID 0000.0001)                    cg2d_init_res =    3.14762135829934E-01
(PID.TID 0000.0001)                       cg2d_iters =    92
(PID.TID 0000.0001)                         cg2d_res =    6.97262611830068E-14
(PID.TID 0000.0001) // =======================================================
(PID.TID 0000.0001) // Begin MONITOR dynamic field statistics
(PID.TID 0000.0001) // =======================================================
(PID.TID 0000.0001) %MON time_tsnumber                =                    14
(PID.TID 0000.0001) %MON time_secondsf                =   6.0480000000000E+05
(PID.TID 0000.0001) %MON dynstat_eta_max              =   1.8691312350440E+00
(PID.TID 0000.0001) %MON dynstat_eta_min              =  -1.3943510089859E+00
(PID.TID 0000.0001) %MON dynstat_eta_mean             =  -8.3026335532566E-04
(PID.TID 0000.0001) %MON dynstat_eta_sd               =   5.1455582362435E-01
(PID.TID 0000.0001) %MON dynstat_eta_del2             =   2.0293306134510E-03
(PID.TID 0000.0001) %MON dynstat_uvel_max             =   3.3296204699602E-01
(PID.TID 0000.0001) %MON dynstat_uvel_min             =  -5.3503606737463E-01
(PID.TID 0000.0001) %MON dynstat_uvel_mean            =   2.5843319464346E-04
(PID.TID 0000.0001) %MON dynstat_uvel_sd              =   1.4811941036050E-02
(PID.TID 0000.0001) %MON dynstat_uvel_del2            =   1.3629603559546E-04
(PID.TID 0000.0001) %MON dynstat_vvel_max             =   5.1904095155919E-01
(PID.TID 0000.0001) %MON dynstat_vvel_min             =  -7.4639066007035E-01
(PID.TID 0000.0001) %MON dynstat_vvel_mean            =  -5.4169281645030E-04
(PID.TID 0000.0001) %MON dynstat_vvel_sd              =   1.6218577540724E-02
(PID.TID 0000.0001) %MON dynstat_vvel_del2            =   1.2703610103633E-04
(PID.TID 0000.0001) %MON dynstat_wvel_max             =   2.3870973615420E-03
(PID.TID 0000.0001) %MON dynstat_wvel_min             =  -1.4768397832435E-03
(PID.TID 0000.0001) %MON dynstat_wvel_mean            =   1.6478324526287E-22
(PID.TID 0000.0001) %MON dynstat_wvel_sd              =   6.8530386027149E-05
(PID.TID 0000.0001) %MON dynstat_wvel_del2            =   8.4408673066497E-07
(PID.TID 0000.0001) %MON dynstat_theta_max            =   2.9097971692524E+01
(PID.TID 0000.0001) %MON dynstat_theta_min            =  -1.8574037032586E+00
(PID.TID 0000.0001) %MON dynstat_theta_mean           =   3.4376387268824E+00
(PID.TID 0000.0001) %MON dynstat_theta_sd             =   4.1094058162321E+00
(PID.TID 0000.0001) %MON dynstat_theta_del2           =   4.9432810568775E-03
(PID.TID 0000.0001) %MON dynstat_salt_max             =   3.7446345977419E+01
(PID.TID 0000.0001) %MON dynstat_salt_min             =   3.1042473358286E+01
(PID.TID 0000.0001) %MON dynstat_salt_mean            =   3.4715018414793E+01
(PID.TID 0000.0001) %MON dynstat_salt_sd              =   2.7633841099222E-01
(PID.TID 0000.0001) %MON dynstat_salt_del2            =   8.4922953335058E-04
(PID.TID 0000.0001) %MON forcing_qnet_max             =   1.2177114707638E+02
(PID.TID 0000.0001) %MON forcing_qnet_min             =  -3.5279905298973E+01
(PID.TID 0000.0001) %MON forcing_qnet_mean            =  -7.6224895684014E-01
(PID.TID 0000.0001) %MON forcing_qnet_sd              =   2.1681281062164E+01
(PID.TID 0000.0001) %MON forcing_qnet_del2            =   1.0978930093308E-01
(PID.TID 0000.0001) %MON forcing_qsw_max              =   0.0000000000000E+00
(PID.TID 0000.0001) %MON forcing_qsw_min              =   0.0000000000000E+00
(PID.TID 0000.0001) %MON forcing_qsw_mean             =   0.0000000000000E+00
(PID.TID 0000.0001) %MON forcing_qsw_sd               =   0.0000000000000E+00
(PID.TID 0000.0001) %MON forcing_qsw_del2             =   0.0000000000000E+00
(PID.TID 0000.0001) %MON forcing_empmr_max            =   3.7600374110707E-05
(PID.TID 0000.0001) %MON forcing_empmr_min            =  -2.9685016686068E-05
(PID.TID 0000.0001) %MON forcing_empmr_mean           =   1.4208375872388E-06
(PID.TID 0000.0001) %MON forcing_empmr_sd             =   1.1923373923198E-05
(PID.TID 0000.0001) %MON forcing_empmr_del2           =   7.4400852469102E-08
(PID.TID 0000.0001) %MON forcing_fu_max               =   1.6004334390163E-01
(PID.TID 0000.0001) %MON forcing_fu_min               =  -1.0329221189022E-01
(PID.TID 0000.0001) %MON forcing_fu_mean              =   4.1280488583042E-03
(PID.TID 0000.0001) %MON forcing_fu_sd                =   5.5800359441598E-02
(PID.TID 0000.0001) %MON forcing_fu_del2              =   3.2370368543278E-04
(PID.TID 0000.0001) %MON forcing_fv_max               =   8.4633164107800E-02
(PID.TID 0000.0001) %MON forcing_fv_min               =  -7.0490099489689E-02
(PID.TID 0000.0001) %MON forcing_fv_mean              =   2.8803575798275E-03
(PID.TID 0000.0001) %MON forcing_fv_sd                =   2.2193297771215E-02
(PID.TID 0000.0001) %MON forcing_fv_del2              =   2.1170835219132E-04
(PID.TID 0000.0001) %MON advcfl_uvel_max              =   5.2776253347964E-02
(PID.TID 0000.0001) %MON advcfl_vvel_max              =   7.2505867292332E-02
(PID.TID 0000.0001) %MON advcfl_wvel_max              =   2.6629504767549E-01
(PID.TID 0000.0001) %MON advcfl_W_hf_max              =   2.8587556588692E-01
(PID.TID 0000.0001) %MON pe_b_mean                    =   3.0718026673607E-04
(PID.TID 0000.0001) %MON ke_max                       =   1.5499382492484E-01
(PID.TID 0000.0001) %MON ke_mean                      =   2.2112326030549E-04
(PID.TID 0000.0001) %MON ke_vol                       =   1.4101703507225E+18
(PID.TID 0000.0001) %MON vort_r_min                   =  -1.6279943677935E-06
(PID.TID 0000.0001) %MON vort_r_max                   =   1.7388756327058E-06
(PID.TID 0000.0001) %MON vort_a_mean                  =  -1.9976608796704E-05
(PID.TID 0000.0001) %MON vort_a_sd                    =   7.3718780808098E-05
(PID.TID 0000.0001) %MON vort_p_mean                  =  -2.3730263022063E-05
(PID.TID 0000.0001) %MON vort_p_sd                    =   1.0369752049036E-04
(PID.TID 0000.0001) %MON surfExpan_theta_mean         =  -4.6943425563303E-07
(PID.TID 0000.0001) %MON surfExpan_salt_mean          =   6.5748616518500E-09
(PID.TID 0000.0001) // =======================================================
(PID.TID 0000.0001) // End MONITOR dynamic field statistics
(PID.TID 0000.0001) // =======================================================
 SH   5.2815235607214959        23.314010757807750     
 NH   10.370879876562185        25.566450739213110     
 SH   5.2815235607214959        23.314010757807750     
 NH   10.370879876562185        25.566450739213110     
 SH   5.2815235607214959        23.314010757807750     
 NH   10.370879876562185        25.566450739213110     
 SH   5.2815235607214959        23.314010757807750     
 NH   10.370879876562185        25.566450739213110     
 SH   5.2815235607214959        23.314010757807750     
 NH   10.370879876562185        25.566450739213110     
 SH   5.2815235607214959        23.314010757807750     
 NH   10.370879876562185        25.566450739213110     
 cg2d: Sum(rhs),rhsMax =   1.07668912999764E-01  4.81331247850994E+00
(PID.TID 0000.0001)                    cg2d_init_res =    3.44313331647958E-01
(PID.TID 0000.0001)                       cg2d_iters =    91
(PID.TID 0000.0001)                         cg2d_res =    9.50346065511435E-14
(PID.TID 0000.0001) // =======================================================
(PID.TID 0000.0001) // Begin MONITOR dynamic field statistics
(PID.TID 0000.0001) // =======================================================
(PID.TID 0000.0001) %MON time_tsnumber                =                    15
(PID.TID 0000.0001) %MON time_secondsf                =   6.4800000000000E+05
(PID.TID 0000.0001) %MON dynstat_eta_max              =   1.9664270173844E+00
(PID.TID 0000.0001) %MON dynstat_eta_min              =  -1.3834589341100E+00
(PID.TID 0000.0001) %MON dynstat_eta_mean             =  -8.8956788070611E-04
(PID.TID 0000.0001) %MON dynstat_eta_sd               =   5.1200194502293E-01
(PID.TID 0000.0001) %MON dynstat_eta_del2             =   1.9883630208924E-03
(PID.TID 0000.0001) %MON dynstat_uvel_max             =   3.4559090550508E-01
(PID.TID 0000.0001) %MON dynstat_uvel_min             =  -5.5650437552061E-01
(PID.TID 0000.0001) %MON dynstat_uvel_mean            =   3.4821481851054E-04
(PID.TID 0000.0001) %MON dynstat_uvel_sd              =   1.5795763860985E-02
(PID.TID 0000.0001) %MON dynstat_uvel_del2            =   1.4104214845779E-04
(PID.TID 0000.0001) %MON dynstat_vvel_max             =   5.4502584156416E-01
(PID.TID 0000.0001) %MON dynstat_vvel_min             =  -7.7767921754405E-01
(PID.TID 0000.0001) %MON dynstat_vvel_mean            =  -5.0145070418961E-04
(PID.TID 0000.0001) %MON dynstat_vvel_sd              =   1.6567971086014E-02
(PID.TID 0000.0001) %MON dynstat_vvel_del2            =   1.2625830926429E-04
(PID.TID 0000.0001) %MON dynstat_wvel_max             =   2.4982312394740E-03
(PID.TID 0000.0001) %MON dynstat_wvel_min             =  -1.5347049551637E-03
(PID.TID 0000.0001) %MON dynstat_wvel_mean            =   1.1875758020669E-21
(PID.TID 0000.0001) %MON dynstat_wvel_sd              =   7.0505697252164E-05
(PID.TID 0000.0001) %MON dynstat_wvel_del2            =   8.5834303367438E-07
(PID.TID 0000.0001) %MON dynstat_theta_max            =   2.9083118741330E+01
(PID.TID 0000.0001) %MON dynstat_theta_min            =  -1.8576094222856E+00
(PID.TID 0000.0001) %MON dynstat_theta_mean           =   3.4376414991982E+00
(PID.TID 0000.0001) %MON dynstat_theta_sd             =   4.1093706221591E+00
(PID.TID 0000.0001) %MON dynstat_theta_del2           =   4.9344276033583E-03
(PID.TID 0000.0001) %MON dynstat_salt_max             =   3.7446956223456E+01
(PID.TID 0000.0001) %MON dynstat_salt_min             =   3.1042717569489E+01
(PID.TID 0000.0001) %MON dynstat_salt_mean            =   3.4715018532382E+01
(PID.TID 0000.0001) %MON dynstat_salt_sd              =   2.7634399318183E-01
(PID.TID 0000.0001) %MON dynstat_salt_del2            =   8.4885657087026E-04
(PID.TID 0000.0001) %MON forcing_qnet_max             =   1.2113697411828E+02
(PID.TID 0000.0001) %MON forcing_qnet_min             =  -3.5295351768028E+01
(PID.TID 0000.0001) %MON forcing_qnet_mean            =  -7.6390497326895E-01
(PID.TID 0000.0001) %MON forcing_qnet_sd              =   2.1620839668139E+01
(PID.TID 0000.0001) %MON forcing_qnet_del2            =   1.0964692609908E-01
(PID.TID 0000.0001) %MON forcing_qsw_max              =   0.0000000000000E+00
(PID.TID 0000.0001) %MON forcing_qsw_min              =   0.0000000000000E+00
(PID.TID 0000.0001) %MON forcing_qsw_mean             =   0.0000000000000E+00
(PID.TID 0000.0001) %MON forcing_qsw_sd               =   0.0000000000000E+00
(PID.TID 0000.0001) %MON forcing_qsw_del2             =   0.0000000000000E+00
(PID.TID 0000.0001) %MON forcing_empmr_max            =   3.7600374110707E-05
(PID.TID 0000.0001) %MON forcing_empmr_min            =  -2.9685016686068E-05
(PID.TID 0000.0001) %MON forcing_empmr_mean           =   1.4208375872388E-06
(PID.TID 0000.0001) %MON forcing_empmr_sd             =   1.1923373923198E-05
(PID.TID 0000.0001) %MON forcing_empmr_del2           =   7.4400852469102E-08
(PID.TID 0000.0001) %MON forcing_fu_max               =   1.6004334390163E-01
(PID.TID 0000.0001) %MON forcing_fu_min               =  -1.0329221189022E-01
(PID.TID 0000.0001) %MON forcing_fu_mean              =   4.1280488583042E-03
(PID.TID 0000.0001) %MON forcing_fu_sd                =   5.5800359441598E-02
(PID.TID 0000.0001) %MON forcing_fu_del2              =   3.2370368543278E-04
(PID.TID 0000.0001) %MON forcing_fv_max               =   8.4633164107800E-02
(PID.TID 0000.0001) %MON forcing_fv_min               =  -7.0490099489689E-02
(PID.TID 0000.0001) %MON forcing_fv_mean              =   2.8803575798275E-03
(PID.TID 0000.0001) %MON forcing_fv_sd                =   2.2193297771215E-02
(PID.TID 0000.0001) %MON forcing_fv_del2              =   2.1170835219132E-04
(PID.TID 0000.0001) %MON advcfl_uvel_max              =   5.4893899126919E-02
(PID.TID 0000.0001) %MON advcfl_vvel_max              =   7.5545299746837E-02
(PID.TID 0000.0001) %MON advcfl_wvel_max              =   2.7883366174581E-01
(PID.TID 0000.0001) %MON advcfl_W_hf_max              =   2.9933613687418E-01
(PID.TID 0000.0001) %MON pe_b_mean                    =   3.0413872392265E-04
(PID.TID 0000.0001) %MON ke_max                       =   1.6955499010039E-01
(PID.TID 0000.0001) %MON ke_mean                      =   2.4024209877356E-04
(PID.TID 0000.0001) %MON ke_vol                       =   1.4101703507225E+18
(PID.TID 0000.0001) %MON vort_r_min                   =  -1.6847437116084E-06
(PID.TID 0000.0001) %MON vort_r_max                   =   1.8283170380736E-06
(PID.TID 0000.0001) %MON vort_a_mean                  =  -1.9976608796704E-05
(PID.TID 0000.0001) %MON vort_a_sd                    =   7.3718797064802E-05
(PID.TID 0000.0001) %MON vort_p_mean                  =  -2.3730263022063E-05
(PID.TID 0000.0001) %MON vort_p_sd                    =   1.0369748596750E-04
(PID.TID 0000.0001) %MON surfExpan_theta_mean         =  -1.4419523172752E-07
(PID.TID 0000.0001) %MON surfExpan_salt_mean          =   3.6112024909864E-09
(PID.TID 0000.0001) // =======================================================
(PID.TID 0000.0001) // End MONITOR dynamic field statistics
(PID.TID 0000.0001) // =======================================================
 SH   5.2857217566271402        23.315675383658004     
 NH   10.364904499383329        25.566837335199182     
 SH   5.2857217566271402        23.315675383658004     
 NH   10.364904499383329        25.566837335199182     
 SH   5.2857217566271402        23.315675383658004     
 NH   10.364904499383329        25.566837335199182     
 SH   5.2857217566271402        23.315675383658004     
 NH   10.364904499383329        25.566837335199182     
 SH   5.2857217566271402        23.315675383658004     
 NH   10.364904499383329        25.566837335199182     
 SH   5.2857217566271402        23.315675383658004     
 NH   10.364904499383329        25.566837335199182     
 cg2d: Sum(rhs),rhsMax =   1.29252369649033E-01  4.27685567511430E+00
(PID.TID 0000.0001)                    cg2d_init_res =    3.77935558963181E-01
(PID.TID 0000.0001)                       cg2d_iters =    90
(PID.TID 0000.0001)                         cg2d_res =    9.35210026896841E-14
(PID.TID 0000.0001) // =======================================================
(PID.TID 0000.0001) // Begin MONITOR dynamic field statistics
(PID.TID 0000.0001) // =======================================================
(PID.TID 0000.0001) %MON time_tsnumber                =                    16
(PID.TID 0000.0001) %MON time_secondsf                =   6.9120000000000E+05
(PID.TID 0000.0001) %MON dynstat_eta_max              =   1.9985854354268E+00
(PID.TID 0000.0001) %MON dynstat_eta_min              =  -1.3717105194472E+00
(PID.TID 0000.0001) %MON dynstat_eta_mean             =  -9.4887240608638E-04
(PID.TID 0000.0001) %MON dynstat_eta_sd               =   5.1172673995570E-01
(PID.TID 0000.0001) %MON dynstat_eta_del2             =   1.9588400822159E-03
(PID.TID 0000.0001) %MON dynstat_uvel_max             =   3.5651073500424E-01
(PID.TID 0000.0001) %MON dynstat_uvel_min             =  -5.7524420624004E-01
(PID.TID 0000.0001) %MON dynstat_uvel_mean            =   4.1670333008633E-04
(PID.TID 0000.0001) %MON dynstat_uvel_sd              =   1.6718153810206E-02
(PID.TID 0000.0001) %MON dynstat_uvel_del2            =   1.4525395751975E-04
(PID.TID 0000.0001) %MON dynstat_vvel_max             =   5.6898956832269E-01
(PID.TID 0000.0001) %MON dynstat_vvel_min             =  -8.0505309027220E-01
(PID.TID 0000.0001) %MON dynstat_vvel_mean            =  -4.2629704613788E-04
(PID.TID 0000.0001) %MON dynstat_vvel_sd              =   1.6826823354988E-02
(PID.TID 0000.0001) %MON dynstat_vvel_del2            =   1.2462152015506E-04
(PID.TID 0000.0001) %MON dynstat_wvel_max             =   2.5974145265330E-03
(PID.TID 0000.0001) %MON dynstat_wvel_min             =  -1.5821346375356E-03
(PID.TID 0000.0001) %MON dynstat_wvel_mean            =   5.9662899146902E-22
(PID.TID 0000.0001) %MON dynstat_wvel_sd              =   7.2114701212415E-05
(PID.TID 0000.0001) %MON dynstat_wvel_del2            =   8.6722702385282E-07
(PID.TID 0000.0001) %MON dynstat_theta_max            =   2.9068736317586E+01
(PID.TID 0000.0001) %MON dynstat_theta_min            =  -1.8747741519857E+00
(PID.TID 0000.0001) %MON dynstat_theta_mean           =   3.4376428766111E+00
(PID.TID 0000.0001) %MON dynstat_theta_sd             =   4.1093346281602E+00
(PID.TID 0000.0001) %MON dynstat_theta_del2           =   4.9245099389646E-03
(PID.TID 0000.0001) %MON dynstat_salt_max             =   3.7447554311708E+01
(PID.TID 0000.0001) %MON dynstat_salt_min             =   3.1043099020257E+01
(PID.TID 0000.0001) %MON dynstat_salt_mean            =   3.4715018908143E+01
(PID.TID 0000.0001) %MON dynstat_salt_sd              =   2.7634770847543E-01
(PID.TID 0000.0001) %MON dynstat_salt_del2            =   8.4854355054770E-04
(PID.TID 0000.0001) %MON forcing_qnet_max             =   1.2050157721686E+02
(PID.TID 0000.0001) %MON forcing_qnet_min             =  -3.5306762777663E+01
(PID.TID 0000.0001) %MON forcing_qnet_mean            =  -7.6636870246030E-01
(PID.TID 0000.0001) %MON forcing_qnet_sd              =   2.1559219087748E+01
(PID.TID 0000.0001) %MON forcing_qnet_del2            =   1.0949156887459E-01
(PID.TID 0000.0001) %MON forcing_qsw_max              =   0.0000000000000E+00
(PID.TID 0000.0001) %MON forcing_qsw_min              =   0.0000000000000E+00
(PID.TID 0000.0001) %MON forcing_qsw_mean             =   0.0000000000000E+00
(PID.TID 0000.0001) %MON forcing_qsw_sd               =   0.0000000000000E+00
(PID.TID 0000.0001) %MON forcing_qsw_del2             =   0.0000000000000E+00
(PID.TID 0000.0001) %MON forcing_empmr_max            =   3.7600374110707E-05
(PID.TID 0000.0001) %MON forcing_empmr_min            =  -2.9685016686068E-05
(PID.TID 0000.0001) %MON forcing_empmr_mean           =   1.4208375872388E-06
(PID.TID 0000.0001) %MON forcing_empmr_sd             =   1.1923373923198E-05
(PID.TID 0000.0001) %MON forcing_empmr_del2           =   7.4400852469102E-08
(PID.TID 0000.0001) %MON forcing_fu_max               =   1.6004334390163E-01
(PID.TID 0000.0001) %MON forcing_fu_min               =  -1.0329221189022E-01
(PID.TID 0000.0001) %MON forcing_fu_mean              =   4.1280488583042E-03
(PID.TID 0000.0001) %MON forcing_fu_sd                =   5.5800359441598E-02
(PID.TID 0000.0001) %MON forcing_fu_del2              =   3.2370368543278E-04
(PID.TID 0000.0001) %MON forcing_fv_max               =   8.4633164107800E-02
(PID.TID 0000.0001) %MON forcing_fv_min               =  -7.0490099489689E-02
(PID.TID 0000.0001) %MON forcing_fv_mean              =   2.8803575798275E-03
(PID.TID 0000.0001) %MON forcing_fv_sd                =   2.2193297771215E-02
(PID.TID 0000.0001) %MON forcing_fv_del2              =   2.1170835219132E-04
(PID.TID 0000.0001) %MON advcfl_uvel_max              =   5.6742406384755E-02
(PID.TID 0000.0001) %MON advcfl_vvel_max              =   7.8204451970308E-02
(PID.TID 0000.0001) %MON advcfl_wvel_max              =   2.9004088437797E-01
(PID.TID 0000.0001) %MON advcfl_W_hf_max              =   3.1136741999399E-01
(PID.TID 0000.0001) %MON pe_b_mean                    =   3.0381198536568E-04
(PID.TID 0000.0001) %MON ke_max                       =   1.8328448493844E-01
(PID.TID 0000.0001) %MON ke_mean                      =   2.5801199863517E-04
(PID.TID 0000.0001) %MON ke_vol                       =   1.4101703507225E+18
(PID.TID 0000.0001) %MON vort_r_min                   =  -1.7323671213026E-06
(PID.TID 0000.0001) %MON vort_r_max                   =   1.9111004489832E-06
(PID.TID 0000.0001) %MON vort_a_mean                  =  -1.9976608796704E-05
(PID.TID 0000.0001) %MON vort_a_sd                    =   7.3718807733577E-05
(PID.TID 0000.0001) %MON vort_p_mean                  =  -2.3730263022063E-05
(PID.TID 0000.0001) %MON vort_p_sd                    =   1.0369743791710E-04
(PID.TID 0000.0001) %MON surfExpan_theta_mean         =  -3.8230666588973E-08
(PID.TID 0000.0001) %MON surfExpan_salt_mean          =  -2.4356528147247E-08
(PID.TID 0000.0001) // =======================================================
(PID.TID 0000.0001) // End MONITOR dynamic field statistics
(PID.TID 0000.0001) // =======================================================
 SH   5.2891878081194932        23.317350667033509     
 NH   10.358294651016763        25.566916542813374     
 SH   5.2891878081194932        23.317350667033509     
 NH   10.358294651016763        25.566916542813374     
 SH   5.2891878081194932        23.317350667033509     
 NH   10.358294651016763        25.566916542813374     
 SH   5.2891878081194932        23.317350667033509     
 NH   10.358294651016763        25.566916542813374     
 SH   5.2891878081194932        23.317350667033509     
 NH   10.358294651016763        25.566916542813374     
 SH   5.2891878081194932        23.317350667033509     
 NH   10.358294651016763        25.566916542813374     
 cg2d: Sum(rhs),rhsMax =   1.43850097753695E-01  4.08302356406423E+00
(PID.TID 0000.0001)                    cg2d_init_res =    3.80809574251023E-01
(PID.TID 0000.0001)                       cg2d_iters =    91
(PID.TID 0000.0001)                         cg2d_res =    8.23793873523320E-14
(PID.TID 0000.0001) // =======================================================
(PID.TID 0000.0001) // Begin MONITOR dynamic field statistics
(PID.TID 0000.0001) // =======================================================
(PID.TID 0000.0001) %MON time_tsnumber                =                    17
(PID.TID 0000.0001) %MON time_secondsf                =   7.3440000000000E+05
(PID.TID 0000.0001) %MON dynstat_eta_max              =   1.9625859516985E+00
(PID.TID 0000.0001) %MON dynstat_eta_min              =  -1.3599572233164E+00
(PID.TID 0000.0001) %MON dynstat_eta_mean             =  -1.0081769314669E-03
(PID.TID 0000.0001) %MON dynstat_eta_sd               =   5.1335322444619E-01
(PID.TID 0000.0001) %MON dynstat_eta_del2             =   1.9410247887282E-03
(PID.TID 0000.0001) %MON dynstat_uvel_max             =   3.6569995372660E-01
(PID.TID 0000.0001) %MON dynstat_uvel_min             =  -5.9123219180320E-01
(PID.TID 0000.0001) %MON dynstat_uvel_mean            =   4.6409370759019E-04
(PID.TID 0000.0001) %MON dynstat_uvel_sd              =   1.7567133277219E-02
(PID.TID 0000.0001) %MON dynstat_uvel_del2            =   1.4891435807489E-04
(PID.TID 0000.0001) %MON dynstat_vvel_max             =   5.9086026507766E-01
(PID.TID 0000.0001) %MON dynstat_vvel_min             =  -8.2827219332727E-01
(PID.TID 0000.0001) %MON dynstat_vvel_mean            =  -3.3075809381407E-04
(PID.TID 0000.0001) %MON dynstat_vvel_sd              =   1.7006525306142E-02
(PID.TID 0000.0001) %MON dynstat_vvel_del2            =   1.2235339682014E-04
(PID.TID 0000.0001) %MON dynstat_wvel_max             =   2.6832265237681E-03
(PID.TID 0000.0001) %MON dynstat_wvel_min             =  -1.6181697291029E-03
(PID.TID 0000.0001) %MON dynstat_wvel_mean            =  -1.9319414961854E-22
(PID.TID 0000.0001) %MON dynstat_wvel_sd              =   7.3367830299521E-05
(PID.TID 0000.0001) %MON dynstat_wvel_del2            =   8.7099928388281E-07
(PID.TID 0000.0001) %MON dynstat_theta_max            =   2.9054766055371E+01
(PID.TID 0000.0001) %MON dynstat_theta_min            =  -1.9239077399197E+00
(PID.TID 0000.0001) %MON dynstat_theta_mean           =   3.4376445249768E+00
(PID.TID 0000.0001) %MON dynstat_theta_sd             =   4.1093032235140E+00
(PID.TID 0000.0001) %MON dynstat_theta_del2           =   4.9158980456706E-03
(PID.TID 0000.0001) %MON dynstat_salt_max             =   3.7448139689133E+01
(PID.TID 0000.0001) %MON dynstat_salt_min             =   3.1043663965254E+01
(PID.TID 0000.0001) %MON dynstat_salt_mean            =   3.4715019712309E+01
(PID.TID 0000.0001) %MON dynstat_salt_sd              =   2.7634976288687E-01
(PID.TID 0000.0001) %MON dynstat_salt_del2            =   8.4831424551369E-04
(PID.TID 0000.0001) %MON forcing_qnet_max             =   1.1983165379523E+02
(PID.TID 0000.0001) %MON forcing_qnet_min             =  -3.5312319246518E+01
(PID.TID 0000.0001) %MON forcing_qnet_mean            =  -7.6966110824379E-01
(PID.TID 0000.0001) %MON forcing_qnet_sd              =   2.1492364031686E+01
(PID.TID 0000.0001) %MON forcing_qnet_del2            =   1.0930980563182E-01
(PID.TID 0000.0001) %MON forcing_qsw_max              =   0.0000000000000E+00
(PID.TID 0000.0001) %MON forcing_qsw_min              =   0.0000000000000E+00
(PID.TID 0000.0001) %MON forcing_qsw_mean             =   0.0000000000000E+00
(PID.TID 0000.0001) %MON forcing_qsw_sd               =   0.0000000000000E+00
(PID.TID 0000.0001) %MON forcing_qsw_del2             =   0.0000000000000E+00
(PID.TID 0000.0001) %MON forcing_empmr_max            =   3.7600374110707E-05
(PID.TID 0000.0001) %MON forcing_empmr_min            =  -2.9685016686068E-05
(PID.TID 0000.0001) %MON forcing_empmr_mean           =   1.4208375872388E-06
(PID.TID 0000.0001) %MON forcing_empmr_sd             =   1.1923373923198E-05
(PID.TID 0000.0001) %MON forcing_empmr_del2           =   7.4400852469102E-08
(PID.TID 0000.0001) %MON forcing_fu_max               =   1.6004334390163E-01
(PID.TID 0000.0001) %MON forcing_fu_min               =  -1.0329221189022E-01
(PID.TID 0000.0001) %MON forcing_fu_mean              =   4.1280488583042E-03
(PID.TID 0000.0001) %MON forcing_fu_sd                =   5.5800359441598E-02
(PID.TID 0000.0001) %MON forcing_fu_del2              =   3.2370368543278E-04
(PID.TID 0000.0001) %MON forcing_fv_max               =   8.4633164107800E-02
(PID.TID 0000.0001) %MON forcing_fv_min               =  -7.0490099489689E-02
(PID.TID 0000.0001) %MON forcing_fv_mean              =   2.8803575798275E-03
(PID.TID 0000.0001) %MON forcing_fv_sd                =   2.2193297771215E-02
(PID.TID 0000.0001) %MON forcing_fv_del2              =   2.1170835219132E-04
(PID.TID 0000.0001) %MON advcfl_uvel_max              =   5.8319470115702E-02
(PID.TID 0000.0001) %MON advcfl_vvel_max              =   8.0460001637288E-02
(PID.TID 0000.0001) %MON advcfl_wvel_max              =   2.9972039389540E-01
(PID.TID 0000.0001) %MON advcfl_W_hf_max              =   3.2175865815241E-01
(PID.TID 0000.0001) %MON pe_b_mean                    =   3.0574646913059E-04
(PID.TID 0000.0001) %MON ke_max                       =   1.9596666297251E-01
(PID.TID 0000.0001) %MON ke_mean                      =   2.7420140712080E-04
(PID.TID 0000.0001) %MON ke_vol                       =   1.4101703507225E+18
(PID.TID 0000.0001) %MON vort_r_min                   =  -1.7705779812803E-06
(PID.TID 0000.0001) %MON vort_r_max                   =   1.9867521281063E-06
(PID.TID 0000.0001) %MON vort_a_mean                  =  -1.9976608796704E-05
(PID.TID 0000.0001) %MON vort_a_sd                    =   7.3718812996022E-05
(PID.TID 0000.0001) %MON vort_p_mean                  =  -2.3730263022063E-05
(PID.TID 0000.0001) %MON vort_p_sd                    =   1.0369737827209E-04
(PID.TID 0000.0001) %MON surfExpan_theta_mean         =  -2.7213444401366E-08
(PID.TID 0000.0001) %MON surfExpan_salt_mean          =  -6.1772242031558E-08
(PID.TID 0000.0001) // =======================================================
(PID.TID 0000.0001) // End MONITOR dynamic field statistics
(PID.TID 0000.0001) // =======================================================
 SH   5.2918127633412269        23.319079911602330     
 NH   10.350907828959691        25.566745625941223     
 SH   5.2918127633412269        23.319079911602330     
 NH   10.350907828959691        25.566745625941223     
 SH   5.2918127633412269        23.319079911602330     
 NH   10.350907828959691        25.566745625941223     
 SH   5.2918127633412269        23.319079911602330     
 NH   10.350907828959691        25.566745625941223     
 SH   5.2918127633412269        23.319079911602330     
 NH   10.350907828959691        25.566745625941223     
 SH   5.2918127633412269        23.319079911602330     
 NH   10.350907828959691        25.566745625941223     
 cg2d: Sum(rhs),rhsMax =   1.32424169101627E-01  4.69621936241843E+00
(PID.TID 0000.0001)                    cg2d_init_res =    3.19119918737278E-01
(PID.TID 0000.0001)                       cg2d_iters =    91
(PID.TID 0000.0001)                         cg2d_res =    6.67335163841882E-14
(PID.TID 0000.0001) // =======================================================
(PID.TID 0000.0001) // Begin MONITOR dynamic field statistics
(PID.TID 0000.0001) // =======================================================
(PID.TID 0000.0001) %MON time_tsnumber                =                    18
(PID.TID 0000.0001) %MON time_secondsf                =   7.7760000000000E+05
(PID.TID 0000.0001) %MON dynstat_eta_max              =   1.8607332706915E+00
(PID.TID 0000.0001) %MON dynstat_eta_min              =  -1.3509678319083E+00
(PID.TID 0000.0001) %MON dynstat_eta_mean             =  -1.0674814568473E-03
(PID.TID 0000.0001) %MON dynstat_eta_sd               =   5.1662216118853E-01
(PID.TID 0000.0001) %MON dynstat_eta_del2             =   1.9314712751105E-03
(PID.TID 0000.0001) %MON dynstat_uvel_max             =   3.7312499550773E-01
(PID.TID 0000.0001) %MON dynstat_uvel_min             =  -6.0448072346775E-01
(PID.TID 0000.0001) %MON dynstat_uvel_mean            =   4.9175208245245E-04
(PID.TID 0000.0001) %MON dynstat_uvel_sd              =   1.8333483305665E-02
(PID.TID 0000.0001) %MON dynstat_uvel_del2            =   1.5204232968729E-04
(PID.TID 0000.0001) %MON dynstat_vvel_max             =   6.1059355068152E-01
(PID.TID 0000.0001) %MON dynstat_vvel_min             =  -8.4723806702077E-01
(PID.TID 0000.0001) %MON dynstat_vvel_mean            =  -2.2753727141038E-04
(PID.TID 0000.0001) %MON dynstat_vvel_sd              =   1.7121608285894E-02
(PID.TID 0000.0001) %MON dynstat_vvel_del2            =   1.1972032580188E-04
(PID.TID 0000.0001) %MON dynstat_wvel_max             =   2.7556072780300E-03
(PID.TID 0000.0001) %MON dynstat_wvel_min             =  -1.6423377430016E-03
(PID.TID 0000.0001) %MON dynstat_wvel_mean            =   7.8698205065199E-22
(PID.TID 0000.0001) %MON dynstat_wvel_sd              =   7.4289260075672E-05
(PID.TID 0000.0001) %MON dynstat_wvel_del2            =   8.7011187203457E-07
(PID.TID 0000.0001) %MON dynstat_theta_max            =   2.9041106418399E+01
(PID.TID 0000.0001) %MON dynstat_theta_min            =  -1.9660082776672E+00
(PID.TID 0000.0001) %MON dynstat_theta_mean           =   3.4376466542184E+00
(PID.TID 0000.0001) %MON dynstat_theta_sd             =   4.1092756744596E+00
(PID.TID 0000.0001) %MON dynstat_theta_del2           =   4.9085558445715E-03
(PID.TID 0000.0001) %MON dynstat_salt_max             =   3.7448712858262E+01
(PID.TID 0000.0001) %MON dynstat_salt_min             =   3.1044406149830E+01
(PID.TID 0000.0001) %MON dynstat_salt_mean            =   3.4715020946752E+01
(PID.TID 0000.0001) %MON dynstat_salt_sd              =   2.7635047911034E-01
(PID.TID 0000.0001) %MON dynstat_salt_del2            =   8.4814624182459E-04
(PID.TID 0000.0001) %MON forcing_qnet_max             =   1.1910736182379E+02
(PID.TID 0000.0001) %MON forcing_qnet_min             =  -3.5310617165894E+01
(PID.TID 0000.0001) %MON forcing_qnet_mean            =  -7.7376307243902E-01
(PID.TID 0000.0001) %MON forcing_qnet_sd              =   2.1417769812849E+01
(PID.TID 0000.0001) %MON forcing_qnet_del2            =   1.0909314198964E-01
(PID.TID 0000.0001) %MON forcing_qsw_max              =   0.0000000000000E+00
(PID.TID 0000.0001) %MON forcing_qsw_min              =   0.0000000000000E+00
(PID.TID 0000.0001) %MON forcing_qsw_mean             =   0.0000000000000E+00
(PID.TID 0000.0001) %MON forcing_qsw_sd               =   0.0000000000000E+00
(PID.TID 0000.0001) %MON forcing_qsw_del2             =   0.0000000000000E+00
(PID.TID 0000.0001) %MON forcing_empmr_max            =   3.7600374110707E-05
(PID.TID 0000.0001) %MON forcing_empmr_min            =  -2.9685016686068E-05
(PID.TID 0000.0001) %MON forcing_empmr_mean           =   1.4208375872388E-06
(PID.TID 0000.0001) %MON forcing_empmr_sd             =   1.1923373923198E-05
(PID.TID 0000.0001) %MON forcing_empmr_del2           =   7.4400852469102E-08
(PID.TID 0000.0001) %MON forcing_fu_max               =   1.6004334390163E-01
(PID.TID 0000.0001) %MON forcing_fu_min               =  -1.0329221189022E-01
(PID.TID 0000.0001) %MON forcing_fu_mean              =   4.1280488583042E-03
(PID.TID 0000.0001) %MON forcing_fu_sd                =   5.5800359441598E-02
(PID.TID 0000.0001) %MON forcing_fu_del2              =   3.2370368543278E-04
(PID.TID 0000.0001) %MON forcing_fv_max               =   8.4633164107800E-02
(PID.TID 0000.0001) %MON forcing_fv_min               =  -7.0490099489689E-02
(PID.TID 0000.0001) %MON forcing_fv_mean              =   2.8803575798275E-03
(PID.TID 0000.0001) %MON forcing_fv_sd                =   2.2193297771215E-02
(PID.TID 0000.0001) %MON forcing_fv_del2              =   2.1170835219132E-04
(PID.TID 0000.0001) %MON advcfl_uvel_max              =   5.9626312600262E-02
(PID.TID 0000.0001) %MON advcfl_vvel_max              =   8.2302384178589E-02
(PID.TID 0000.0001) %MON advcfl_wvel_max              =   3.0787156449395E-01
(PID.TID 0000.0001) %MON advcfl_W_hf_max              =   3.3050917953027E-01
(PID.TID 0000.0001) %MON pe_b_mean                    =   3.0965286657480E-04
(PID.TID 0000.0001) %MON ke_max                       =   2.0743955802677E-01
(PID.TID 0000.0001) %MON ke_mean                      =   2.8867482057592E-04
(PID.TID 0000.0001) %MON ke_vol                       =   1.4101703507225E+18
(PID.TID 0000.0001) %MON vort_r_min                   =  -1.7994075274107E-06
(PID.TID 0000.0001) %MON vort_r_max                   =   2.0551938596847E-06
(PID.TID 0000.0001) %MON vort_a_mean                  =  -1.9976608796704E-05
(PID.TID 0000.0001) %MON vort_a_sd                    =   7.3718813326019E-05
(PID.TID 0000.0001) %MON vort_p_mean                  =  -2.3730263022063E-05
(PID.TID 0000.0001) %MON vort_p_sd                    =   1.0369730991735E-04
(PID.TID 0000.0001) %MON surfExpan_theta_mean         =  -6.6970094513804E-09
(PID.TID 0000.0001) %MON surfExpan_salt_mean          =  -9.5628084217446E-08
(PID.TID 0000.0001) // =======================================================
(PID.TID 0000.0001) // End MONITOR dynamic field statistics
(PID.TID 0000.0001) // =======================================================
 SH   5.2935059438245275        23.320881630749227     
 NH   10.342698511423634        25.566361342725429     
 SH   5.2935059438245275        23.320881630749227     
 NH   10.342698511423634        25.566361342725429     
 SH   5.2935059438245275        23.320881630749227     
 NH   10.342698511423634        25.566361342725429     
 SH   5.2935059438245275        23.320881630749227     
 NH   10.342698511423634        25.566361342725429     
 SH   5.2935059438245275        23.320881630749227     
 NH   10.342698511423634        25.566361342725429     
 SH   5.2935059438245275        23.320881630749227     
 NH   10.342698511423634        25.566361342725429     
 cg2d: Sum(rhs),rhsMax =   1.25235750034180E-01  5.24165467906790E+00
(PID.TID 0000.0001)                    cg2d_init_res =    2.71624646673500E-01
(PID.TID 0000.0001)                       cg2d_iters =    90
(PID.TID 0000.0001)                         cg2d_res =    9.14359971713269E-14
(PID.TID 0000.0001) // =======================================================
(PID.TID 0000.0001) // Begin MONITOR dynamic field statistics
(PID.TID 0000.0001) // =======================================================
(PID.TID 0000.0001) %MON time_tsnumber                =                    19
(PID.TID 0000.0001) %MON time_secondsf                =   8.2080000000000E+05
(PID.TID 0000.0001) %MON dynstat_eta_max              =   1.7003264540771E+00
(PID.TID 0000.0001) %MON dynstat_eta_min              =  -1.3500179470834E+00
(PID.TID 0000.0001) %MON dynstat_eta_mean             =  -1.1267859822277E-03
(PID.TID 0000.0001) %MON dynstat_eta_sd               =   5.2127114004105E-01
(PID.TID 0000.0001) %MON dynstat_eta_del2             =   1.9273476988742E-03
(PID.TID 0000.0001) %MON dynstat_uvel_max             =   3.8114613292073E-01
(PID.TID 0000.0001) %MON dynstat_uvel_min             =  -6.1501496954873E-01
(PID.TID 0000.0001) %MON dynstat_uvel_mean            =   5.0237249115675E-04
(PID.TID 0000.0001) %MON dynstat_uvel_sd              =   1.9008815321521E-02
(PID.TID 0000.0001) %MON dynstat_uvel_del2            =   1.5463558925107E-04
(PID.TID 0000.0001) %MON dynstat_vvel_max             =   6.2815371183606E-01
(PID.TID 0000.0001) %MON dynstat_vvel_min             =  -8.6184735814236E-01
(PID.TID 0000.0001) %MON dynstat_vvel_mean            =  -1.2678666367029E-04
(PID.TID 0000.0001) %MON dynstat_vvel_sd              =   1.7186599336290E-02
(PID.TID 0000.0001) %MON dynstat_vvel_del2            =   1.1699942979842E-04
(PID.TID 0000.0001) %MON dynstat_wvel_max             =   2.8142773155430E-03
(PID.TID 0000.0001) %MON dynstat_wvel_min             =  -1.6541469432015E-03
(PID.TID 0000.0001) %MON dynstat_wvel_mean            =  -7.3016024194065E-22
(PID.TID 0000.0001) %MON dynstat_wvel_sd              =   7.4899950314206E-05
(PID.TID 0000.0001) %MON dynstat_wvel_del2            =   8.6497957189679E-07
(PID.TID 0000.0001) %MON dynstat_theta_max            =   2.9027651156269E+01
(PID.TID 0000.0001) %MON dynstat_theta_min            =  -2.0005589166014E+00
(PID.TID 0000.0001) %MON dynstat_theta_mean           =   3.4376485287635E+00
(PID.TID 0000.0001) %MON dynstat_theta_sd             =   4.1092484479370E+00
(PID.TID 0000.0001) %MON dynstat_theta_del2           =   4.9019620728049E-03
(PID.TID 0000.0001) %MON dynstat_salt_max             =   3.7449274636489E+01
(PID.TID 0000.0001) %MON dynstat_salt_min             =   3.1045281915991E+01
(PID.TID 0000.0001) %MON dynstat_salt_mean            =   3.4715022496123E+01
(PID.TID 0000.0001) %MON dynstat_salt_sd              =   2.7635033213437E-01
(PID.TID 0000.0001) %MON dynstat_salt_del2            =   8.4801681913775E-04
(PID.TID 0000.0001) %MON forcing_qnet_max             =   1.1832049996250E+02
(PID.TID 0000.0001) %MON forcing_qnet_min             =  -3.5300712074379E+01
(PID.TID 0000.0001) %MON forcing_qnet_mean            =  -7.7863430014385E-01
(PID.TID 0000.0001) %MON forcing_qnet_sd              =   2.1334292379710E+01
(PID.TID 0000.0001) %MON forcing_qnet_del2            =   1.0883746258389E-01
(PID.TID 0000.0001) %MON forcing_qsw_max              =   0.0000000000000E+00
(PID.TID 0000.0001) %MON forcing_qsw_min              =   0.0000000000000E+00
(PID.TID 0000.0001) %MON forcing_qsw_mean             =   0.0000000000000E+00
(PID.TID 0000.0001) %MON forcing_qsw_sd               =   0.0000000000000E+00
(PID.TID 0000.0001) %MON forcing_qsw_del2             =   0.0000000000000E+00
(PID.TID 0000.0001) %MON forcing_empmr_max            =   3.7600374110707E-05
(PID.TID 0000.0001) %MON forcing_empmr_min            =  -2.9685016686068E-05
(PID.TID 0000.0001) %MON forcing_empmr_mean           =   1.4208375872388E-06
(PID.TID 0000.0001) %MON forcing_empmr_sd             =   1.1923373923198E-05
(PID.TID 0000.0001) %MON forcing_empmr_del2           =   7.4400852469102E-08
(PID.TID 0000.0001) %MON forcing_fu_max               =   1.6004334390163E-01
(PID.TID 0000.0001) %MON forcing_fu_min               =  -1.0329221189022E-01
(PID.TID 0000.0001) %MON forcing_fu_mean              =   4.1280488583042E-03
(PID.TID 0000.0001) %MON forcing_fu_sd                =   5.5800359441598E-02
(PID.TID 0000.0001) %MON forcing_fu_del2              =   3.2370368543278E-04
(PID.TID 0000.0001) %MON forcing_fv_max               =   8.4633164107800E-02
(PID.TID 0000.0001) %MON forcing_fv_min               =  -7.0490099489689E-02
(PID.TID 0000.0001) %MON forcing_fv_mean              =   2.8803575798275E-03
(PID.TID 0000.0001) %MON forcing_fv_sd                =   2.2193297771215E-02
(PID.TID 0000.0001) %MON forcing_fv_del2              =   2.1170835219132E-04
(PID.TID 0000.0001) %MON advcfl_uvel_max              =   6.0665416454938E-02
(PID.TID 0000.0001) %MON advcfl_vvel_max              =   8.3721559658621E-02
(PID.TID 0000.0001) %MON advcfl_wvel_max              =   3.1445838983689E-01
(PID.TID 0000.0001) %MON advcfl_W_hf_max              =   3.3758033026607E-01
(PID.TID 0000.0001) %MON pe_b_mean                    =   3.1525107648634E-04
(PID.TID 0000.0001) %MON ke_max                       =   2.1756605000274E-01
(PID.TID 0000.0001) %MON ke_mean                      =   3.0131941987242E-04
(PID.TID 0000.0001) %MON ke_vol                       =   1.4101703507225E+18
(PID.TID 0000.0001) %MON vort_r_min                   =  -1.8188696071722E-06
(PID.TID 0000.0001) %MON vort_r_max                   =   2.1163617874857E-06
(PID.TID 0000.0001) %MON vort_a_mean                  =  -1.9976608796704E-05
(PID.TID 0000.0001) %MON vort_a_sd                    =   7.3718809509000E-05
(PID.TID 0000.0001) %MON vort_p_mean                  =  -2.3730263022063E-05
(PID.TID 0000.0001) %MON vort_p_sd                    =   1.0369723666392E-04
(PID.TID 0000.0001) %MON surfExpan_theta_mean         =   7.9484860701169E-08
(PID.TID 0000.0001) %MON surfExpan_salt_mean          =  -1.1769325077070E-07
(PID.TID 0000.0001) // =======================================================
(PID.TID 0000.0001) // End MONITOR dynamic field statistics
(PID.TID 0000.0001) // =======================================================
 SH   5.2941958522878281        23.322752530286493     
 NH   10.333688243220593        25.565785853549642     
 SH   5.2941958522878281        23.322752530286493     
 NH   10.333688243220593        25.565785853549642     
 SH   5.2941958522878281        23.322752530286493     
 NH   10.333688243220593        25.565785853549642     
 SH   5.2941958522878281        23.322752530286493     
 NH   10.333688243220593        25.565785853549642     
 SH   5.2941958522878281        23.322752530286493     
 NH   10.333688243220593        25.565785853549642     
 SH   5.2941958522878281        23.322752530286493     
 NH   10.333688243220593        25.565785853549642     
 cg2d: Sum(rhs),rhsMax =   1.21007656381273E-01  5.71031771032735E+00
(PID.TID 0000.0001)                    cg2d_init_res =    2.34967468261649E-01
(PID.TID 0000.0001)                       cg2d_iters =    90
(PID.TID 0000.0001)                         cg2d_res =    7.45589109163050E-14
(PID.TID 0000.0001) // =======================================================
(PID.TID 0000.0001) // Begin MONITOR dynamic field statistics
(PID.TID 0000.0001) // =======================================================
(PID.TID 0000.0001) %MON time_tsnumber                =                    20
(PID.TID 0000.0001) %MON time_secondsf                =   8.6400000000000E+05
(PID.TID 0000.0001) %MON dynstat_eta_max              =   1.4929023559055E+00
(PID.TID 0000.0001) %MON dynstat_eta_min              =  -1.3626371506736E+00
(PID.TID 0000.0001) %MON dynstat_eta_mean             =  -1.1860905076081E-03
(PID.TID 0000.0001) %MON dynstat_eta_sd               =   5.2692713805096E-01
(PID.TID 0000.0001) %MON dynstat_eta_del2             =   1.9270998616269E-03
(PID.TID 0000.0001) %MON dynstat_uvel_max             =   3.8759120987401E-01
(PID.TID 0000.0001) %MON dynstat_uvel_min             =  -6.2287359200215E-01
(PID.TID 0000.0001) %MON dynstat_uvel_mean            =   5.0004391993607E-04
(PID.TID 0000.0001) %MON dynstat_uvel_sd              =   1.9586324385345E-02
(PID.TID 0000.0001) %MON dynstat_uvel_del2            =   1.5669155190927E-04
(PID.TID 0000.0001) %MON dynstat_vvel_max             =   6.4351935936736E-01
(PID.TID 0000.0001) %MON dynstat_vvel_min             =  -8.7202473992219E-01
(PID.TID 0000.0001) %MON dynstat_vvel_mean            =  -3.5872618209091E-05
(PID.TID 0000.0001) %MON dynstat_vvel_sd              =   1.7216211559051E-02
(PID.TID 0000.0001) %MON dynstat_vvel_del2            =   1.1446705093976E-04
(PID.TID 0000.0001) %MON dynstat_wvel_max             =   2.8590384842894E-03
(PID.TID 0000.0001) %MON dynstat_wvel_min             =  -1.6532641065037E-03
(PID.TID 0000.0001) %MON dynstat_wvel_mean            =   1.4915724786725E-22
(PID.TID 0000.0001) %MON dynstat_wvel_sd              =   7.5220309997886E-05
(PID.TID 0000.0001) %MON dynstat_wvel_del2            =   8.5601117404074E-07
(PID.TID 0000.0001) %MON dynstat_theta_max            =   2.9014316676808E+01
(PID.TID 0000.0001) %MON dynstat_theta_min            =  -2.0272907123224E+00
(PID.TID 0000.0001) %MON dynstat_theta_mean           =   3.4376491350131E+00
(PID.TID 0000.0001) %MON dynstat_theta_sd             =   4.1092174372410E+00
(PID.TID 0000.0001) %MON dynstat_theta_del2           =   4.8955065193557E-03
(PID.TID 0000.0001) %MON dynstat_salt_max             =   3.7449825648796E+01
(PID.TID 0000.0001) %MON dynstat_salt_min             =   3.1046232549873E+01
(PID.TID 0000.0001) %MON dynstat_salt_mean            =   3.4715024190314E+01
(PID.TID 0000.0001) %MON dynstat_salt_sd              =   2.7634977700409E-01
(PID.TID 0000.0001) %MON dynstat_salt_del2            =   8.4790666568385E-04
(PID.TID 0000.0001) %MON forcing_qnet_max             =   1.1747097271849E+02
(PID.TID 0000.0001) %MON forcing_qnet_min             =  -3.5282087091536E+01
(PID.TID 0000.0001) %MON forcing_qnet_mean            =  -7.8423103240191E-01
(PID.TID 0000.0001) %MON forcing_qnet_sd              =   2.1241760913112E+01
(PID.TID 0000.0001) %MON forcing_qnet_del2            =   1.0854189106198E-01
(PID.TID 0000.0001) %MON forcing_qsw_max              =   0.0000000000000E+00
(PID.TID 0000.0001) %MON forcing_qsw_min              =   0.0000000000000E+00
(PID.TID 0000.0001) %MON forcing_qsw_mean             =   0.0000000000000E+00
(PID.TID 0000.0001) %MON forcing_qsw_sd               =   0.0000000000000E+00
(PID.TID 0000.0001) %MON forcing_qsw_del2             =   0.0000000000000E+00
(PID.TID 0000.0001) %MON forcing_empmr_max            =   3.7600374110707E-05
(PID.TID 0000.0001) %MON forcing_empmr_min            =  -2.9685016686068E-05
(PID.TID 0000.0001) %MON forcing_empmr_mean           =   1.4208375872388E-06
(PID.TID 0000.0001) %MON forcing_empmr_sd             =   1.1923373923198E-05
(PID.TID 0000.0001) %MON forcing_empmr_del2           =   7.4400852469102E-08
(PID.TID 0000.0001) %MON forcing_fu_max               =   1.6004334390163E-01
(PID.TID 0000.0001) %MON forcing_fu_min               =  -1.0329221189022E-01
(PID.TID 0000.0001) %MON forcing_fu_mean              =   4.1280488583042E-03
(PID.TID 0000.0001) %MON forcing_fu_sd                =   5.5800359441598E-02
(PID.TID 0000.0001) %MON forcing_fu_del2              =   3.2370368543278E-04
(PID.TID 0000.0001) %MON forcing_fv_max               =   8.4633164107800E-02
(PID.TID 0000.0001) %MON forcing_fv_min               =  -7.0490099489689E-02
(PID.TID 0000.0001) %MON forcing_fv_mean              =   2.8803575798275E-03
(PID.TID 0000.0001) %MON forcing_fv_sd                =   2.2193297771215E-02
(PID.TID 0000.0001) %MON forcing_fv_del2              =   2.1170835219132E-04
(PID.TID 0000.0001) %MON advcfl_uvel_max              =   6.1440595316435E-02
(PID.TID 0000.0001) %MON advcfl_vvel_max              =   8.4710210685742E-02
(PID.TID 0000.0001) %MON advcfl_wvel_max              =   3.1944998000982E-01
(PID.TID 0000.0001) %MON advcfl_W_hf_max              =   3.4293894912819E-01
(PID.TID 0000.0001) %MON pe_b_mean                    =   3.2212951602937E-04
(PID.TID 0000.0001) %MON ke_max                       =   2.2623516010997E-01
(PID.TID 0000.0001) %MON ke_mean                      =   3.1206431046564E-04
(PID.TID 0000.0001) %MON ke_vol                       =   1.4101703507225E+18
(PID.TID 0000.0001) %MON vort_r_min                   =  -1.8290308547473E-06
(PID.TID 0000.0001) %MON vort_r_max                   =   2.1701973492261E-06
(PID.TID 0000.0001) %MON vort_a_mean                  =  -1.9976608796704E-05
(PID.TID 0000.0001) %MON vort_a_sd                    =   7.3718802654413E-05
(PID.TID 0000.0001) %MON vort_p_mean                  =  -2.3730263022063E-05
(PID.TID 0000.0001) %MON vort_p_sd                    =   1.0369716314050E-04
(PID.TID 0000.0001) %MON surfExpan_theta_mean         =   2.3663331546364E-07
(PID.TID 0000.0001) %MON surfExpan_salt_mean          =  -1.2503096443576E-07
(PID.TID 0000.0001) // =======================================================
(PID.TID 0000.0001) // End MONITOR dynamic field statistics
(PID.TID 0000.0001) // =======================================================
(PID.TID 0000.0001) // Time-average data written, t-step        20
(PID.TID 0000.0001) 
(PID.TID 0000.0001) %CHECKPOINT        20 ckptA
(PID.TID 0000.0001)   Seconds in section "ALL                    [THE_MODEL_MAIN]":
(PID.TID 0000.0001)           User time:   7.5499999999999998
(PID.TID 0000.0001)         System time:  5.00000000000000028E-002
(PID.TID 0000.0001)     Wall clock time:   7.6483831405639648
(PID.TID 0000.0001)          No. starts:           1
(PID.TID 0000.0001)           No. stops:           1
(PID.TID 0000.0001)   Seconds in section "INITIALISE_FIXED       [THE_MODEL_MAIN]":
(PID.TID 0000.0001)           User time:  5.99999999999999978E-002
(PID.TID 0000.0001)         System time:  1.00000000000000002E-002
(PID.TID 0000.0001)     Wall clock time:  9.14919376373291016E-002
(PID.TID 0000.0001)          No. starts:           1
(PID.TID 0000.0001)           No. stops:           1
(PID.TID 0000.0001)   Seconds in section "THE_MAIN_LOOP          [THE_MODEL_MAIN]":
(PID.TID 0000.0001)           User time:   7.4900000000000002
(PID.TID 0000.0001)         System time:  4.00000000000000008E-002
(PID.TID 0000.0001)     Wall clock time:   7.5568521022796631
(PID.TID 0000.0001)          No. starts:           1
(PID.TID 0000.0001)           No. stops:           1
(PID.TID 0000.0001)   Seconds in section "INITIALISE_VARIA    [THE_MAIN_LOOP]":
(PID.TID 0000.0001)           User time:  0.10000000000000001
(PID.TID 0000.0001)         System time:  1.00000000000000002E-002
(PID.TID 0000.0001)     Wall clock time:  0.12807202339172363
(PID.TID 0000.0001)          No. starts:           1
(PID.TID 0000.0001)           No. stops:           1
(PID.TID 0000.0001)   Seconds in section "MAIN LOOP           [THE_MAIN_LOOP]":
(PID.TID 0000.0001)           User time:   7.3899999999999997
(PID.TID 0000.0001)         System time:  3.00000000000000024E-002
(PID.TID 0000.0001)     Wall clock time:   7.4287519454956055
(PID.TID 0000.0001)          No. starts:           1
(PID.TID 0000.0001)           No. stops:           1
(PID.TID 0000.0001)   Seconds in section "FORWARD_STEP        [THE_MAIN_LOOP]":
(PID.TID 0000.0001)           User time:   7.3899999999999997
(PID.TID 0000.0001)         System time:  3.00000000000000024E-002
(PID.TID 0000.0001)     Wall clock time:   7.4285631179809570
(PID.TID 0000.0001)          No. starts:          20
(PID.TID 0000.0001)           No. stops:          20
(PID.TID 0000.0001)   Seconds in section "LOAD_FIELDS_DRIVER  [FORWARD_STEP]":
(PID.TID 0000.0001)           User time:  9.99999999999978684E-003
(PID.TID 0000.0001)         System time:   0.0000000000000000
(PID.TID 0000.0001)     Wall clock time:  5.26666641235351563E-004
(PID.TID 0000.0001)          No. starts:          20
(PID.TID 0000.0001)           No. stops:          20
(PID.TID 0000.0001)   Seconds in section "EXTERNAL_FLDS_LOAD [LOAD_FLDS_DRIVER]":
(PID.TID 0000.0001)           User time:  9.99999999999978684E-003
(PID.TID 0000.0001)         System time:   0.0000000000000000
(PID.TID 0000.0001)     Wall clock time:  1.81436538696289063E-004
(PID.TID 0000.0001)          No. starts:          20
(PID.TID 0000.0001)           No. stops:          20
(PID.TID 0000.0001)   Seconds in section "EBM                [FORWARD_STEP]":
(PID.TID 0000.0001)           User time:  3.00000000000002487E-002
(PID.TID 0000.0001)         System time:   0.0000000000000000
(PID.TID 0000.0001)     Wall clock time:  2.37300395965576172E-002
(PID.TID 0000.0001)          No. starts:          20
(PID.TID 0000.0001)           No. stops:          20
(PID.TID 0000.0001)   Seconds in section "DO_ATMOSPHERIC_PHYS [FORWARD_STEP]":
(PID.TID 0000.0001)           User time:   0.0000000000000000
(PID.TID 0000.0001)         System time:   0.0000000000000000
(PID.TID 0000.0001)     Wall clock time:  1.85251235961914063E-004
(PID.TID 0000.0001)          No. starts:          20
(PID.TID 0000.0001)           No. stops:          20
(PID.TID 0000.0001)   Seconds in section "DO_OCEANIC_PHYS     [FORWARD_STEP]":
(PID.TID 0000.0001)           User time:  0.80000000000000071
(PID.TID 0000.0001)         System time:   0.0000000000000000
(PID.TID 0000.0001)     Wall clock time:  0.80266308784484863
(PID.TID 0000.0001)          No. starts:          20
(PID.TID 0000.0001)           No. stops:          20
(PID.TID 0000.0001)   Seconds in section "THERMODYNAMICS      [FORWARD_STEP]":
(PID.TID 0000.0001)           User time:   1.6300000000000008
(PID.TID 0000.0001)         System time:   0.0000000000000000
(PID.TID 0000.0001)     Wall clock time:   1.6252996921539307
(PID.TID 0000.0001)          No. starts:          20
(PID.TID 0000.0001)           No. stops:          20
(PID.TID 0000.0001)   Seconds in section "DYNAMICS            [FORWARD_STEP]":
(PID.TID 0000.0001)           User time:   2.3700000000000010
(PID.TID 0000.0001)         System time:   0.0000000000000000
(PID.TID 0000.0001)     Wall clock time:   2.3799545764923096
(PID.TID 0000.0001)          No. starts:          20
(PID.TID 0000.0001)           No. stops:          20
(PID.TID 0000.0001)   Seconds in section "SOLVE_FOR_PRESSURE  [FORWARD_STEP]":
(PID.TID 0000.0001)           User time:   1.0799999999999992
(PID.TID 0000.0001)         System time:   0.0000000000000000
(PID.TID 0000.0001)     Wall clock time:   1.0986609458923340
(PID.TID 0000.0001)          No. starts:          20
(PID.TID 0000.0001)           No. stops:          20
(PID.TID 0000.0001)   Seconds in section "MOM_CORRECTION_STEP [FORWARD_STEP]":
(PID.TID 0000.0001)           User time:  0.18000000000000060
(PID.TID 0000.0001)         System time:   0.0000000000000000
(PID.TID 0000.0001)     Wall clock time:  0.19083499908447266
(PID.TID 0000.0001)          No. starts:          20
(PID.TID 0000.0001)           No. stops:          20
(PID.TID 0000.0001)   Seconds in section "UPDATE_ETAH         [FORWARD_STEP]":
(PID.TID 0000.0001)           User time:  1.99999999999995737E-002
(PID.TID 0000.0001)         System time:   0.0000000000000000
(PID.TID 0000.0001)     Wall clock time:  1.73354148864746094E-003
(PID.TID 0000.0001)          No. starts:          20
(PID.TID 0000.0001)           No. stops:          20
(PID.TID 0000.0001)   Seconds in section "TRC_CORRECTION_STEP [FORWARD_STEP]":
(PID.TID 0000.0001)           User time:  1.99999999999995737E-002
(PID.TID 0000.0001)         System time:   0.0000000000000000
(PID.TID 0000.0001)     Wall clock time:  2.80950069427490234E-002
(PID.TID 0000.0001)          No. starts:          20
(PID.TID 0000.0001)           No. stops:          20
(PID.TID 0000.0001)   Seconds in section "BLOCKING_EXCHANGES  [FORWARD_STEP]":
(PID.TID 0000.0001)           User time:  7.00000000000002842E-002
(PID.TID 0000.0001)         System time:   0.0000000000000000
(PID.TID 0000.0001)     Wall clock time:  5.57208061218261719E-002
(PID.TID 0000.0001)          No. starts:          20
(PID.TID 0000.0001)           No. stops:          20
(PID.TID 0000.0001)   Seconds in section "DO_STATEVARS_TAVE   [FORWARD_STEP]":
(PID.TID 0000.0001)           User time:  0.33999999999999986
(PID.TID 0000.0001)         System time:   0.0000000000000000
(PID.TID 0000.0001)     Wall clock time:  0.35349035263061523
(PID.TID 0000.0001)          No. starts:          20
(PID.TID 0000.0001)           No. stops:          20
(PID.TID 0000.0001)   Seconds in section "MONITOR             [FORWARD_STEP]":
(PID.TID 0000.0001)           User time:  0.69000000000000039
(PID.TID 0000.0001)         System time:   0.0000000000000000
(PID.TID 0000.0001)     Wall clock time:  0.68740558624267578
(PID.TID 0000.0001)          No. starts:          20
(PID.TID 0000.0001)           No. stops:          20
(PID.TID 0000.0001)   Seconds in section "DO_THE_MODEL_IO     [FORWARD_STEP]":
(PID.TID 0000.0001)           User time:  0.10999999999999943
(PID.TID 0000.0001)         System time:  2.00000000000000004E-002
(PID.TID 0000.0001)     Wall clock time:  0.13497114181518555
(PID.TID 0000.0001)          No. starts:          20
(PID.TID 0000.0001)           No. stops:          20
(PID.TID 0000.0001)   Seconds in section "DO_WRITE_PICKUP     [FORWARD_STEP]":
(PID.TID 0000.0001)           User time:  4.00000000000000355E-002
(PID.TID 0000.0001)         System time:  1.00000000000000019E-002
(PID.TID 0000.0001)     Wall clock time:  4.23741340637207031E-002
(PID.TID 0000.0001)          No. starts:          20
(PID.TID 0000.0001)           No. stops:          20
(PID.TID 0000.0001) // ======================================================
(PID.TID 0000.0001) // Tile <-> Tile communication statistics
(PID.TID 0000.0001) // ======================================================
(PID.TID 0000.0001) // o Tile number: 000001
(PID.TID 0000.0001) //         No. X exchanges =              0
(PID.TID 0000.0001) //            Max. X spins =              0
(PID.TID 0000.0001) //            Min. X spins =     1000000000
(PID.TID 0000.0001) //          Total. X spins =              0
(PID.TID 0000.0001) //            Avg. X spins =       0.00E+00
(PID.TID 0000.0001) //         No. Y exchanges =              0
(PID.TID 0000.0001) //            Max. Y spins =              0
(PID.TID 0000.0001) //            Min. Y spins =     1000000000
(PID.TID 0000.0001) //          Total. Y spins =              0
(PID.TID 0000.0001) //            Avg. Y spins =       0.00E+00
(PID.TID 0000.0001) // o Tile number: 000002
(PID.TID 0000.0001) //         No. X exchanges =              0
(PID.TID 0000.0001) //            Max. X spins =              0
(PID.TID 0000.0001) //            Min. X spins =     1000000000
(PID.TID 0000.0001) //          Total. X spins =              0
(PID.TID 0000.0001) //            Avg. X spins =       0.00E+00
(PID.TID 0000.0001) //         No. Y exchanges =              0
(PID.TID 0000.0001) //            Max. Y spins =              0
(PID.TID 0000.0001) //            Min. Y spins =     1000000000
(PID.TID 0000.0001) //          Total. Y spins =              0
(PID.TID 0000.0001) //            Avg. Y spins =       0.00E+00
(PID.TID 0000.0001) // o Tile number: 000003
(PID.TID 0000.0001) //         No. X exchanges =              0
(PID.TID 0000.0001) //            Max. X spins =              0
(PID.TID 0000.0001) //            Min. X spins =     1000000000
(PID.TID 0000.0001) //          Total. X spins =              0
(PID.TID 0000.0001) //            Avg. X spins =       0.00E+00
(PID.TID 0000.0001) //         No. Y exchanges =              0
(PID.TID 0000.0001) //            Max. Y spins =              0
(PID.TID 0000.0001) //            Min. Y spins =     1000000000
(PID.TID 0000.0001) //          Total. Y spins =              0
(PID.TID 0000.0001) //            Avg. Y spins =       0.00E+00
(PID.TID 0000.0001) // o Tile number: 000004
(PID.TID 0000.0001) //         No. X exchanges =              0
(PID.TID 0000.0001) //            Max. X spins =              0
(PID.TID 0000.0001) //            Min. X spins =     1000000000
(PID.TID 0000.0001) //          Total. X spins =              0
(PID.TID 0000.0001) //            Avg. X spins =       0.00E+00
(PID.TID 0000.0001) //         No. Y exchanges =              0
(PID.TID 0000.0001) //            Max. Y spins =              0
(PID.TID 0000.0001) //            Min. Y spins =     1000000000
(PID.TID 0000.0001) //          Total. Y spins =              0
(PID.TID 0000.0001) //            Avg. Y spins =       0.00E+00
(PID.TID 0000.0001) // o Tile number: 000005
(PID.TID 0000.0001) //         No. X exchanges =              0
(PID.TID 0000.0001) //            Max. X spins =              0
(PID.TID 0000.0001) //            Min. X spins =     1000000000
(PID.TID 0000.0001) //          Total. X spins =              0
(PID.TID 0000.0001) //            Avg. X spins =       0.00E+00
(PID.TID 0000.0001) //         No. Y exchanges =              0
(PID.TID 0000.0001) //            Max. Y spins =              0
(PID.TID 0000.0001) //            Min. Y spins =     1000000000
(PID.TID 0000.0001) //          Total. Y spins =              0
(PID.TID 0000.0001) //            Avg. Y spins =       0.00E+00
(PID.TID 0000.0001) // o Tile number: 000006
(PID.TID 0000.0001) //         No. X exchanges =              0
(PID.TID 0000.0001) //            Max. X spins =              0
(PID.TID 0000.0001) //            Min. X spins =     1000000000
(PID.TID 0000.0001) //          Total. X spins =              0
(PID.TID 0000.0001) //            Avg. X spins =       0.00E+00
(PID.TID 0000.0001) //         No. Y exchanges =              0
(PID.TID 0000.0001) //            Max. Y spins =              0
(PID.TID 0000.0001) //            Min. Y spins =     1000000000
(PID.TID 0000.0001) //          Total. Y spins =              0
(PID.TID 0000.0001) //            Avg. Y spins =       0.00E+00
(PID.TID 0000.0001) // o Thread number: 000001
(PID.TID 0000.0001) //            No. barriers =          19012
(PID.TID 0000.0001) //      Max. barrier spins =              1
(PID.TID 0000.0001) //      Min. barrier spins =              1
(PID.TID 0000.0001) //     Total barrier spins =          19012
(PID.TID 0000.0001) //      Avg. barrier spins =       1.00E+00
PROGRAM MAIN: Execution ended Normally
