(PID.TID 0000.0001) 
(PID.TID 0000.0001) // ======================================================
(PID.TID 0000.0001) //                      MITgcm UV
(PID.TID 0000.0001) //                      =========
(PID.TID 0000.0001) // ======================================================
(PID.TID 0000.0001) // execution environment starting up...
(PID.TID 0000.0001) 
(PID.TID 0000.0001) // MITgcmUV version:  checkpoint63f
(PID.TID 0000.0001) // Build user:        jmc
(PID.TID 0000.0001) // Build host:        baudelaire
(PID.TID 0000.0001) // Build date:        Thu Dec  1 04:55:47 EST 2011
(PID.TID 0000.0001) 
(PID.TID 0000.0001) // =======================================================
(PID.TID 0000.0001) // Execution Environment parameter file "eedata"
(PID.TID 0000.0001) // =======================================================
(PID.TID 0000.0001) ># Example "eedata" file
(PID.TID 0000.0001) ># Lines beginning "#" are comments
(PID.TID 0000.0001) ># nTx - No. threads per process in X
(PID.TID 0000.0001) ># nTy - No. threads per process in Y
(PID.TID 0000.0001) > &EEPARMS
(PID.TID 0000.0001) > useCubedSphereExchange=.TRUE.,
(PID.TID 0000.0001) > nTx=1,
(PID.TID 0000.0001) > nTy=1,
(PID.TID 0000.0001) > /
(PID.TID 0000.0001) ># Note: Some systems use & as the
(PID.TID 0000.0001) ># namelist terminator. Other systems
(PID.TID 0000.0001) ># use a / character (as shown here).
(PID.TID 0000.0001) 
(PID.TID 0000.0001) // =======================================================
(PID.TID 0000.0001) // Computational Grid Specification ( see files "SIZE.h" )
(PID.TID 0000.0001) //                                  ( and "eedata"       )
(PID.TID 0000.0001) // =======================================================
(PID.TID 0000.0001)      nPx =    1 ; /* No. processes in X */
(PID.TID 0000.0001)      nPy =    1 ; /* No. processes in Y */
(PID.TID 0000.0001)      nSx =   12 ; /* No. tiles in X per process */
(PID.TID 0000.0001)      nSy =    1 ; /* No. tiles in Y per process */
(PID.TID 0000.0001)      sNx =   32 ; /* Tile size in X */
(PID.TID 0000.0001)      sNy =   16 ; /* Tile size in Y */
(PID.TID 0000.0001)      OLx =    4 ; /* Tile overlap distance in X */
(PID.TID 0000.0001)      OLy =    4 ; /* Tile overlap distance in Y */
(PID.TID 0000.0001)      nTx =    1 ; /* No. threads in X per process */
(PID.TID 0000.0001)      nTy =    1 ; /* No. threads in Y per process */
(PID.TID 0000.0001)       Nr =   15 ; /* No. levels in the vertical   */
(PID.TID 0000.0001)       Nx =  384 ; /* Total domain size in X ( = nPx*nSx*sNx ) */
(PID.TID 0000.0001)       Ny =   16 ; /* Total domain size in Y ( = nPy*nSy*sNy ) */
(PID.TID 0000.0001)   nTiles =   12 ; /* Total no. tiles per process ( = nSx*nSy ) */
(PID.TID 0000.0001)   nProcs =    1 ; /* Total no. processes ( = nPx*nPy ) */
(PID.TID 0000.0001) nThreads =    1 ; /* Total no. threads per process ( = nTx*nTy ) */
(PID.TID 0000.0001) usingMPI =    F ; /* Flag used to control whether MPI is in use */
(PID.TID 0000.0001)                   /*  note: To execute a program with MPI calls */
(PID.TID 0000.0001)                   /*  it must be launched appropriately e.g     */
(PID.TID 0000.0001)                   /*  "mpirun -np 64 ......"                    */
(PID.TID 0000.0001) useCoupler=    F ;/* Flag used to control communications with   */
(PID.TID 0000.0001)                   /*  other model components, through a coupler */
(PID.TID 0000.0001) debugMode =    F ; /* print debug msg. (sequence of S/R calls)  */
(PID.TID 0000.0001) printMapIncludesZeros=    F ; /* print zeros in Std.Output maps */
(PID.TID 0000.0001) maxLengthPrt1D=   65 /* maxLength of 1D array printed to StdOut */
(PID.TID 0000.0001) 
(PID.TID 0000.0001) // ======================================================
(PID.TID 0000.0001) // Mapping of tiles to threads
(PID.TID 0000.0001) // ======================================================
(PID.TID 0000.0001) // -o- Thread   1, tiles (   1:  12,   1:   1)
(PID.TID 0000.0001) 
(PID.TID 0000.0001) W2_READPARMS: file data.exch2 not found
(PID.TID 0000.0001) => use W2_EXCH2 default: regular 6-facets Cube
(PID.TID 0000.0001) W2_useE2ioLayOut=    T ;/* T: use Exch2 glob IO map; F: use model default */
(PID.TID 0000.0001) W2_mapIO        =  -1 ; /* select option for Exch2 global-IO map */
(PID.TID 0000.0001) W2_printMsg     =  -1 ; /* select option for printing information */
(PID.TID 0000.0001) ===== Start setting W2 TOPOLOGY:
(PID.TID 0000.0001)  write to log-file: w2_tile_topology.0000.log
(PID.TID 0000.0001) =====       setting W2 TOPOLOGY: Done
(PID.TID 0000.0001) 
(PID.TID 0000.0001)  INI_PARMS: opening model parameter file "data"
(PID.TID 0000.0001)  OPEN_COPY_DATA_FILE: opening file data
(PID.TID 0000.0001) // =======================================================
(PID.TID 0000.0001) // Parameter file "data"
(PID.TID 0000.0001) // =======================================================
(PID.TID 0000.0001) ># ====================
(PID.TID 0000.0001) ># | Model parameters |
(PID.TID 0000.0001) ># ====================
(PID.TID 0000.0001) >#
(PID.TID 0000.0001) ># Continuous equation parameters
(PID.TID 0000.0001) > &PARM01
(PID.TID 0000.0001) > tRef=15*20.,
(PID.TID 0000.0001) > sRef=15*35.,
(PID.TID 0000.0001) > viscAh =3.E5,
(PID.TID 0000.0001) > viscAr =1.E-3,
(PID.TID 0000.0001) > diffKhT=0.,
(PID.TID 0000.0001) > diffK4T=0.,
(PID.TID 0000.0001) > diffKrT=3.E-5,
(PID.TID 0000.0001) > diffKhS=0.,
(PID.TID 0000.0001) > diffK4S=0.,
(PID.TID 0000.0001) > diffKrS=3.E-5,
(PID.TID 0000.0001) > ivdc_kappa=10.,
(PID.TID 0000.0001) > implicitDiffusion=.TRUE.,
(PID.TID 0000.0001) > gravity=9.81,
(PID.TID 0000.0001) > rhonil=1035.,
(PID.TID 0000.0001) > rhoConstFresh=1000.,
(PID.TID 0000.0001) > eosType='JMD95Z',
(PID.TID 0000.0001) > staggerTimeStep=.TRUE.,
(PID.TID 0000.0001) > vectorInvariantMomentum=.TRUE.,
(PID.TID 0000.0001) > implicitFreeSurface=.TRUE.,
(PID.TID 0000.0001) > exactConserv=.TRUE.,
(PID.TID 0000.0001) > select_rStar=2,
(PID.TID 0000.0001) > nonlinFreeSurf=4,
(PID.TID 0000.0001) > hFacInf=0.2,
(PID.TID 0000.0001) > hFacSup=2.0,
(PID.TID 0000.0001) > useRealFreshWaterFlux=.TRUE.,
(PID.TID 0000.0001) > hFacMin=.1,
(PID.TID 0000.0001) > hFacMinDr=20.,
(PID.TID 0000.0001) > readBinaryPrec=64,
(PID.TID 0000.0001) >#writeBinaryPrec=64,
(PID.TID 0000.0001) > /
(PID.TID 0000.0001) >
(PID.TID 0000.0001) ># Elliptic solver parameters
(PID.TID 0000.0001) > &PARM02
(PID.TID 0000.0001) > cg2dMaxIters=200,
(PID.TID 0000.0001) >#cg2dTargetResidual=1.E-9,
(PID.TID 0000.0001) > cg2dTargetResWunit=1.E-14,
(PID.TID 0000.0001) > /
(PID.TID 0000.0001) >
(PID.TID 0000.0001) ># Time stepping parameters
(PID.TID 0000.0001) > &PARM03
(PID.TID 0000.0001) > nIter0=36000,
(PID.TID 0000.0001) > nTimeSteps=20,
(PID.TID 0000.0001) > deltaTmom   =1200.,
(PID.TID 0000.0001) > deltaTtracer=86400.,
(PID.TID 0000.0001) > deltaTfreesurf=86400.,
(PID.TID 0000.0001) > deltaTClock =86400.,
(PID.TID 0000.0001) > abEps = 0.1,
(PID.TID 0000.0001) >#forcing_In_AB=.FALSE.,
(PID.TID 0000.0001) > tracForcingOutAB=1,
(PID.TID 0000.0001) > pChkptFreq  =31104000.,
(PID.TID 0000.0001) > taveFreq    =31104000.,
(PID.TID 0000.0001) > dumpFreq    =31104000.,
(PID.TID 0000.0001) > monitorFreq =2592000.,
(PID.TID 0000.0001) >#tave_lastIter=0.,
(PID.TID 0000.0001) > periodicExternalForcing=.TRUE.,
(PID.TID 0000.0001) > externForcingPeriod=2592000.,
(PID.TID 0000.0001) > externForcingCycle=31104000.,
(PID.TID 0000.0001) ># 2 months restoring timescale for temperature
(PID.TID 0000.0001) > tauThetaClimRelax = 5184000.,
(PID.TID 0000.0001) ># 6 months restoring timescale for salinity
(PID.TID 0000.0001) > tauSaltClimRelax = 15552000.,
(PID.TID 0000.0001) > latBandClimRelax=50.,
(PID.TID 0000.0001) > monitorFreq =1.,
(PID.TID 0000.0001) > /
(PID.TID 0000.0001) >
(PID.TID 0000.0001) ># Gridding parameters
(PID.TID 0000.0001) > &PARM04
(PID.TID 0000.0001) > usingCurvilinearGrid=.TRUE.,
(PID.TID 0000.0001) > horizGridFile='grid_cs32',
(PID.TID 0000.0001) > delR= 50., 70., 100., 140., 190.,
(PID.TID 0000.0001) >       240., 290., 340., 390., 440.,
(PID.TID 0000.0001) >       490., 540., 590., 640., 690.,
(PID.TID 0000.0001) > /
(PID.TID 0000.0001) >
(PID.TID 0000.0001) ># Input datasets
(PID.TID 0000.0001) > &PARM05
(PID.TID 0000.0001) > bathyFile      ='bathy_Hmin50.bin',
(PID.TID 0000.0001) > hydrogThetaFile='lev_T_cs_15k.bin',
(PID.TID 0000.0001) > hydrogSaltFile ='lev_S_cs_15k.bin',
(PID.TID 0000.0001) > zonalWindFile  ='trenberth_taux.bin',
(PID.TID 0000.0001) > meridWindFile  ='trenberth_tauy.bin',
(PID.TID 0000.0001) > thetaClimFile  ='lev_surfT_cs_12m.bin',
(PID.TID 0000.0001) > saltClimFile   ='lev_surfS_cs_12m.bin',
(PID.TID 0000.0001) > /
(PID.TID 0000.0001) 
(PID.TID 0000.0001)  INI_PARMS ; starts to read PARM01
(PID.TID 0000.0001)  INI_PARMS ; read PARM01 : OK
(PID.TID 0000.0001)  INI_PARMS ; starts to read PARM02
(PID.TID 0000.0001)  INI_PARMS ; read PARM02 : OK
(PID.TID 0000.0001)  INI_PARMS ; starts to read PARM03
(PID.TID 0000.0001)  INI_PARMS ; read PARM03 : OK
(PID.TID 0000.0001)  INI_PARMS ; starts to read PARM04
(PID.TID 0000.0001)  INI_PARMS ; read PARM04 : OK
(PID.TID 0000.0001)  INI_PARMS ; starts to read PARM05
(PID.TID 0000.0001)  INI_PARMS ; read PARM05 : OK
(PID.TID 0000.0001)  INI_PARMS: finished reading file "data"
(PID.TID 0000.0001)  PACKAGES_BOOT: opening data.pkg
(PID.TID 0000.0001)  OPEN_COPY_DATA_FILE: opening file data.pkg
(PID.TID 0000.0001) // =======================================================
(PID.TID 0000.0001) // Parameter file "data.pkg"
(PID.TID 0000.0001) // =======================================================
(PID.TID 0000.0001) ># Packages
(PID.TID 0000.0001) > &PACKAGES
(PID.TID 0000.0001) > useGMRedi=.TRUE.,
(PID.TID 0000.0001) > useBulkforce=.TRUE.,
(PID.TID 0000.0001) > useThSIce=.TRUE.,
(PID.TID 0000.0001) > useDiagnostics=.TRUE.,
(PID.TID 0000.0001) > /
(PID.TID 0000.0001) 
(PID.TID 0000.0001)  PACKAGES_BOOT: finished reading data.pkg
(PID.TID 0000.0001)  GM_READPARMS: opening data.gmredi
(PID.TID 0000.0001)  OPEN_COPY_DATA_FILE: opening file data.gmredi
(PID.TID 0000.0001) // =======================================================
(PID.TID 0000.0001) // Parameter file "data.gmredi"
(PID.TID 0000.0001) // =======================================================
(PID.TID 0000.0001) ># GM+Redi package parameters:
(PID.TID 0000.0001) >
(PID.TID 0000.0001) >#-from MOM :
(PID.TID 0000.0001) ># GM_background_K: 	G & Mc.W  diffusion coefficient
(PID.TID 0000.0001) ># GM_maxSlope    :	max slope of isopycnals
(PID.TID 0000.0001) ># GM_Scrit       :	transition for scaling diffusion coefficient
(PID.TID 0000.0001) ># GM_Sd          :	half width scaling for diffusion coefficient
(PID.TID 0000.0001) ># GM_taper_scheme:	slope clipping or one of the tapering schemes
(PID.TID 0000.0001) ># GM_Kmin_horiz  :	horizontal diffusion minimum value
(PID.TID 0000.0001) >
(PID.TID 0000.0001) >#-Option parameters (needs to "define" options in GMREDI_OPTIONS.h")
(PID.TID 0000.0001) ># GM_isopycK     :	isopycnal diffusion coefficient (default=GM_background_K)
(PID.TID 0000.0001) ># GM_AdvForm     :	turn on GM Advective form       (default=Skew flux form)
(PID.TID 0000.0001) >
(PID.TID 0000.0001) > &GM_PARM01
(PID.TID 0000.0001) >  GM_background_K    = 800.,
(PID.TID 0000.0001) ># GM_AdvForm         = .TRUE.,
(PID.TID 0000.0001) ># GM_background_K    = 10.,
(PID.TID 0000.0001) ># GM_Visbeck_alpha   = 1.e-2,
(PID.TID 0000.0001) >  GM_Visbeck_length  = 2.e+5,
(PID.TID 0000.0001) >  GM_Visbeck_depth   = 1.e+3,
(PID.TID 0000.0001) >  GM_Visbeck_maxval_K= 2.5e+3,
(PID.TID 0000.0001) >  GM_taper_scheme    = 'gkw91',
(PID.TID 0000.0001) ># GM_Small_Number    = 1.e-18,
(PID.TID 0000.0001) >  GM_maxSlope        = 1.e-2,
(PID.TID 0000.0001) >  GM_Kmin_horiz      = 50.,
(PID.TID 0000.0001) >  GM_Scrit           = 4.e-3,
(PID.TID 0000.0001) >  GM_Sd              = 1.e-3,
(PID.TID 0000.0001) > /
(PID.TID 0000.0001) >
(PID.TID 0000.0001) 
(PID.TID 0000.0001)  GM_READPARMS: finished reading data.gmredi
(PID.TID 0000.0001)  OPEN_COPY_DATA_FILE: opening file data.blk
(PID.TID 0000.0001) // =======================================================
(PID.TID 0000.0001) // Parameter file "data.blk"
(PID.TID 0000.0001) // =======================================================
(PID.TID 0000.0001) > &BULKF_CONST
(PID.TID 0000.0001) > Tf0kel = 273.15,
(PID.TID 0000.0001) >#p0   = 1013.,  <- no longer in Namelist, but hard coded
(PID.TID 0000.0001) > Rgas   = 287.,
(PID.TID 0000.0001) > /
(PID.TID 0000.0001) >
(PID.TID 0000.0001) > &BULKF_PARM01
(PID.TID 0000.0001) ># set blk_nIter=0 to use the original FORMULA_LANL:
(PID.TID 0000.0001) > blk_nIter= 0,
(PID.TID 0000.0001) >#RainFile=       'ncep_precip_cs.bin',
(PID.TID 0000.0001) > RainFile=       'ncep_pr_scal_cs.bin',
(PID.TID 0000.0001) > SolarFile=      'ncep_downsolar_cs.bin',
(PID.TID 0000.0001) > AirTempFile=    'ncep_tair_cs.bin',
(PID.TID 0000.0001) > AirhumidityFile='ncep_qair_cs.bin',
(PID.TID 0000.0001) > LongwaveFile=   'ncep_downlw_cs.bin',
(PID.TID 0000.0001) > UWindFile=      ' ',
(PID.TID 0000.0001) > VWindFile=      ' ',
(PID.TID 0000.0001) > WspeedFile=     'ncep_windspeed_cs.bin',
(PID.TID 0000.0001) > RunoffFile=     ' ',
(PID.TID 0000.0001) > QnetFile=       ' ',
(PID.TID 0000.0001) > EmPFile=        ' ',
(PID.TID 0000.0001) > CloudFile=      ' ',
(PID.TID 0000.0001) >#blk_taveFreq=864000.,
(PID.TID 0000.0001) > /
(PID.TID 0000.0001) >
(PID.TID 0000.0001) > &BULKF_PARM02
(PID.TID 0000.0001) > qnet_off=0.0,
(PID.TID 0000.0001) > empmr_off=0.0,
(PID.TID 0000.0001) > conservcycle=311040000.,
(PID.TID 0000.0001) > /
(PID.TID 0000.0001) >
(PID.TID 0000.0001) 
(PID.TID 0000.0001)  BULKF_READPARMS: starts to read BULKF_CONST
(PID.TID 0000.0001)  BULKF_READPARMS: read BULKF_CONST : OK
(PID.TID 0000.0001)  BULKF_READPARMS: starts to read BULKF_PARM01
(PID.TID 0000.0001)  BULKF_READPARMS: read BULKF_PARM01 : OK
 BlkF: rhoA     =   1.3000000000000000     
 BlkF: rhoFW    =   1000.0000000000000     
 BlkF: cpAir    =   1004.0000000000000     
 BlkF: Lvap     =   2500000.0000000000     
 BlkF: Lfresh   =   334000.00000000000     
 BlkF: Tf0kel   =   273.14999999999998     
 BlkF: Rgas     =   287.00000000000000     
 BlkF: xkar     =  0.40000000000000002     
 BlkF: stefan   =  5.66999999999999982E-008
 BlkF: zref     =   10.000000000000000     
 BlkF: zwd      =   10.000000000000000     
 BlkF: zth      =   10.000000000000000     
 BlkF: cDrag_1  =  2.70000000000000014E-003
 BlkF: cDrag_2  =  1.42000000000000009E-004
 BlkF: cDrag_3  =  7.64000000000000004E-005
 BlkF: cStantonS=  1.79999999999999986E-002
 BlkF: cStantonU=  3.26999999999999999E-002
 BlkF: cDalton  =  3.45999999999999988E-002
 BlkF: umin     =   1.0000000000000000     
 BlkF: humid_fac=  0.60599999999999998     
 BlkF: saltQsFac=  0.97999999999999998     
 BlkF: gamma_blk=  1.00000000000000002E-002
 BlkF: atm_emissivity  =  0.90000000000000002     
 BlkF: ocean_emissivity=  0.98499999999999999     
 BlkF: snow_emissivity =  0.97999999999999998     
 BlkF: ice_emissivity  =  0.97999999999999998     
 BlkF: ocean_albedo    =  0.10000000000000001     
 BlkF: FWIND0   =  0.59999999999999998     
 BlkF: CHS      =  8.00000000000000038E-004
 BlkF: VGUST    =   5.0000000000000000     
 BlkF: DTHETA   =   3.0000000000000000     
 BlkF: dTstab   =   1.0000000000000000     
 BlkF: FSTAB    =  0.67000000000000004     
 BlkF: useFluxFormula_AIM= F
 BlkF: calcWindStress  = F
 BlkF: useQnetch       = F
 BlkF: useEmPch        = F
 BlkF: blk_nIter   =           0
 BlkF: blk_taveFreq=   31104000.000000000     
(PID.TID 0000.0001)  THSICE_READPARMS: opening data.ice
(PID.TID 0000.0001)  OPEN_COPY_DATA_FILE: opening file data.ice
(PID.TID 0000.0001) // =======================================================
(PID.TID 0000.0001) // Parameter file "data.ice"
(PID.TID 0000.0001) // =======================================================
(PID.TID 0000.0001) > &THSICE_CONST
(PID.TID 0000.0001) > Tf0kel  = 273.15,
(PID.TID 0000.0001) >#- with LANL albedo:
(PID.TID 0000.0001) >#albWarmSnow= 0.75,
(PID.TID 0000.0001) >#- for full ice-fraction :
(PID.TID 0000.0001) >#fracEnMelt = 0.,
(PID.TID 0000.0001) >#iceMaskMin = 1.,
(PID.TID 0000.0001) >#hThinIce   = 0.01,
(PID.TID 0000.0001) >#hThickIce  = 100.,
(PID.TID 0000.0001) >#- with fractional ice:
(PID.TID 0000.0001) > iceMaskMin = 0.05,
(PID.TID 0000.0001) > hiMax      = 10.,
(PID.TID 0000.0001) > hsMax      = 10.,
(PID.TID 0000.0001) >#albIceMax  = 0.7,
(PID.TID 0000.0001) >#albIceMin  = 0.7,
(PID.TID 0000.0001) > /
(PID.TID 0000.0001) >
(PID.TID 0000.0001) > &THSICE_PARM01
(PID.TID 0000.0001) >#StartIceModel=1,
(PID.TID 0000.0001) > stressReduction=0.,
(PID.TID 0000.0001) >#thSIce_taveFreq=2592000.,
(PID.TID 0000.0001) >#thSIce_diagFreq=2592000.,
(PID.TID 0000.0001) >#thSIce_monFreq=864000.,
(PID.TID 0000.0001) > /
(PID.TID 0000.0001) >
(PID.TID 0000.0001) 
(PID.TID 0000.0001)  THSICE_READPARMS: read THSICE_CONST
(PID.TID 0000.0001)  THSICE_READPARMS: read THSICE_PARM01
 ThSI: rhos      =   330.00000000000000     
 ThSI: rhoi      =   900.00000000000000     
 ThSI: rhosw     =   1035.0000000000000     
 ThSI: rhofw     =   1000.0000000000000     
 ThSI: floodFac  =  0.40909090909090912     
 ThSI: cpIce     =   2106.0000000000000     
 ThSI: cpWater   =   3994.0000000000000     
 ThSI: kIce      =   2.0299999999999998     
 ThSI: kSnow     =  0.29999999999999999     
 ThSI: bMeltCoef =  6.00000000000000012E-003
 ThSI: Lfresh    =   334000.00000000000     
 ThSI: qsnow     =   334000.00000000000     
 ThSI: albColdSnow=  0.84999999999999998     
 ThSI: albWarmSnow=  0.69999999999999996     
 ThSI: tempSnowAlb=  -10.000000000000000     
 ThSI: albOldSnow =  0.55000000000000004     
 ThSI: hNewSnowAge=  2.00000000000000004E-003
 ThSI: snowAgTime =   4320000.0000000000     
 ThSI: albIceMax =  0.65000000000000002     
 ThSI: albIceMin =  0.20000000000000001     
 ThSI: hAlbIce   =  0.50000000000000000     
 ThSI: hAlbSnow  =  0.29999999999999999     
 ThSI: i0swFrac  =  0.29999999999999999     
 ThSI: ksolar    =   1.5000000000000000     
 ThSI: dhSnowLin =   0.0000000000000000     
 ThSI: saltIce   =   4.0000000000000000     
 ThSI: S_winton  =   1.0000000000000000     
 ThSI: mu_Tf     =  5.39999999999999994E-002
 ThSI: Tf0kel    =   273.14999999999998     
 ThSI: Tmlt1     = -5.39999999999999994E-002
 ThSI: Terrmax   =  0.50000000000000000     
 ThSI: nitMaxTsf =          20
 ThSI: hIceMin   =  1.00000000000000002E-002
 ThSI: hiMax     =   10.000000000000000     
 ThSI: hsMax     =   10.000000000000000     
 ThSI: iceMaskMax =   1.0000000000000000     
 ThSI: iceMaskMin =  5.00000000000000028E-002
 ThSI: fracEnMelt =  0.40000000000000002     
 ThSI: fracEnFreez=   0.0000000000000000     
 ThSI: hThinIce   =  0.20000000000000001     
 ThSI: hThickIce  =   2.5000000000000000     
 ThSI: hNewIceMax =   10.000000000000000     
 ThSI: stressReduction =   0.0000000000000000     
 ThSI: thSIceAdvScheme =           0
 ThSI: thSIce_diffK  =   0.0000000000000000     
 ThSI: thSIce_deltaT =   86400.000000000000     
 ThSI: ocean_deltaT  =   86400.000000000000     
 ThSI: stepFwd_oceMxL= F
 ThSI: tauRelax_MxL  =   0.0000000000000000     
 ThSI: tauRelax_MxL_salt  =   0.0000000000000000     
 ThSI: hMxL_default  =   50.000000000000000     
 ThSI: sMxL_default  =   35.000000000000000     
 ThSI: vMxL_default  =  5.00000000000000028E-002
 ThSI: thSIce_taveFreq=   31104000.000000000     
 ThSI: thSIce_diagFreq=   31104000.000000000     
 ThSI: thSIce_monFreq =   1.0000000000000000     
 ThSI: startIceModel =           0
(PID.TID 0000.0001)  DIAGNOSTICS_READPARMS: opening data.diagnostics
(PID.TID 0000.0001)  OPEN_COPY_DATA_FILE: opening file data.diagnostics
(PID.TID 0000.0001) // =======================================================
(PID.TID 0000.0001) // Parameter file "data.diagnostics"
(PID.TID 0000.0001) // =======================================================
(PID.TID 0000.0001) ># Diagnostic Package Choices
(PID.TID 0000.0001) >#--------------------
(PID.TID 0000.0001) >#  dumpAtLast (logical): always write output at the end of simulation (default=F)
(PID.TID 0000.0001) >#  diag_mnc   (logical): write to NetCDF files (default=useMNC)
(PID.TID 0000.0001) >#--for each output-stream:
(PID.TID 0000.0001) >#  fileName(n) : prefix of the output file name (max 80c long) for outp.stream n
(PID.TID 0000.0001) >#  frequency(n):< 0 : write snap-shot output every |frequency| seconds
(PID.TID 0000.0001) >#               > 0 : write time-average output every frequency seconds
(PID.TID 0000.0001) >#  timePhase(n)     : write at time = timePhase + multiple of |frequency|
(PID.TID 0000.0001) >#    averagingFreq  : frequency (in s) for periodic averaging interval
(PID.TID 0000.0001) >#    averagingPhase : phase     (in s) for periodic averaging interval
(PID.TID 0000.0001) >#    repeatCycle    : number of averaging intervals in 1 cycle
(PID.TID 0000.0001) >#  levels(:,n) : list of levels to write to file (Notes: declared as REAL)
(PID.TID 0000.0001) >#                when this entry is missing, select all common levels of this list
(PID.TID 0000.0001) >#  fields(:,n) : list of selected diagnostics fields (8.c) in outp.stream n
(PID.TID 0000.0001) >#                (see "available_diagnostics.log" file for the full list of diags)
(PID.TID 0000.0001) >#  missing_value(n) : missing value for real-type fields in output file "n"
(PID.TID 0000.0001) >#  fileFlags(n)     : specific code (8c string) for output file "n"
(PID.TID 0000.0001) >#--------------------
(PID.TID 0000.0001) > &DIAGNOSTICS_LIST
(PID.TID 0000.0001) ># diag_mnc     = .FALSE.,
(PID.TID 0000.0001) ># dumpAtLast   = .TRUE.,
(PID.TID 0000.0001) >#--
(PID.TID 0000.0001) >  fields(1:17,1) = 'ETAN    ','ETANSQ  ','DETADT2 ','PHIBOT  ','PHIBOTSQ',
(PID.TID 0000.0001) >                   'oceTAUX ','oceTAUY ','TRELAX  ','SRELAX  ',
(PID.TID 0000.0001) >                   'surForcT','surForcS','TFLUX   ','SFLUX   ',
(PID.TID 0000.0001) >                   'oceQsw  ','oceQnet ','oceSflux','oceFWflx',
(PID.TID 0000.0001) >   fileName(1) = 'surfDiag',
(PID.TID 0000.0001) >  frequency(1) = 1555200000.,
(PID.TID 0000.0001) >
(PID.TID 0000.0001) >  fields(1:15,2) = 'UVEL    ','VVEL    ','WVEL    ','PHIHYD  ',
(PID.TID 0000.0001) >                   'VVELMASS','UVELMASS','WVELSQ  ',
(PID.TID 0000.0001) >                   'THETA   ','UTHMASS ','VTHMASS ','WTHMASS ',
(PID.TID 0000.0001) >                   'SALT    ','USLTMASS','VSLTMASS','WSLTMASS',
(PID.TID 0000.0001) ># do not specify levels => all levels are selected
(PID.TID 0000.0001) >   fileName(2) = 'dynDiag',
(PID.TID 0000.0001) >  frequency(2) = 1555200000.,
(PID.TID 0000.0001) >
(PID.TID 0000.0001) >  fields(1:12,3) = 'DRHODR  ','RHOAnoma','CONVADJ ',
(PID.TID 0000.0001) >                   'GM_PsiX ','GM_PsiY ',
(PID.TID 0000.0001) >                   'GM_Kwx  ','GM_Kwy  ','GM_Kwz  ',
(PID.TID 0000.0001) >                   'GM_Kux  ','GM_Kvy  ',
(PID.TID 0000.0001) >                   'GM_Kuz  ','GM_Kvz  ',
(PID.TID 0000.0001) >#- disable this output list by commenting out the file name
(PID.TID 0000.0001) >#  fileName(3) = 'oceDiag',
(PID.TID 0000.0001) >  frequency(3) = 1555200000.,
(PID.TID 0000.0001) >
(PID.TID 0000.0001) >  fields(1:7,4)  = 'ADVx_TH ','ADVy_TH ','ADVr_TH ',
(PID.TID 0000.0001) >                   'DIFx_TH ','DIFy_TH ','DFrE_TH ',
(PID.TID 0000.0001) >                   'DFrI_TH ',
(PID.TID 0000.0001) >#                  'ADVx_SLT',
(PID.TID 0000.0001) >#  fileName(4) = 'flxDiag',
(PID.TID 0000.0001) >  frequency(4) = 1728000.,
(PID.TID 0000.0001) >
(PID.TID 0000.0001) >  fields(1:16,5) = 'SI_Fract','SI_Thick','SI_SnowH',
(PID.TID 0000.0001) >                   'SI_Tsrf ','SI_Tice1','SI_Tice2',
(PID.TID 0000.0001) >                   'SI_Qice1','SI_Qice2','SIsnwAge',
(PID.TID 0000.0001) >                   'SIsnwPrc','SIalbedo',
(PID.TID 0000.0001) >                   'SIflx2oc','SIfrw2oc','SIsaltFx',
(PID.TID 0000.0001) >                   'SIflxAtm','SIfrwAtm',
(PID.TID 0000.0001) >#                  'SItOcMxL','SIsOcMxL',
(PID.TID 0000.0001) >   fileName(5) = 'thSIceDiag',
(PID.TID 0000.0001) >  frequency(5) = 1555200000.,
(PID.TID 0000.0001) > averagingFreq(5) = 2592000.,
(PID.TID 0000.0001) >   repeatCycle(5) = 12,
(PID.TID 0000.0001) >#--- to check conservation of Volume, Heat & Salt (with z*+realFW+AB_2):
(PID.TID 0000.0001) >  fields(1:2,6)  = 'ETAN    ','oceFWflx',
(PID.TID 0000.0001) >   fileName(6) = 'surfInst',
(PID.TID 0000.0001) >  frequency(6) = -777600.,
(PID.TID 0000.0001) >  timePhase(6) = 0.,
(PID.TID 0000.0001) >  fields(1,7)  = 'ETAN    ',
(PID.TID 0000.0001) >   fileName(7) = 'etaInst',
(PID.TID 0000.0001) >  frequency(7) = -777600.,
(PID.TID 0000.0001) >  timePhase(7) = 86400.,
(PID.TID 0000.0001) >  fields(1:2,8)  = 'THETA   ','SALT    ',
(PID.TID 0000.0001) >   fileName(8) = 'dynInst',
(PID.TID 0000.0001) >  frequency(8) = -777600.,
(PID.TID 0000.0001) >  timePhase(8) = 0.,
(PID.TID 0000.0001) > /
(PID.TID 0000.0001) >
(PID.TID 0000.0001) >#--------------------
(PID.TID 0000.0001) ># Parameter for Diagnostics of per level statistics:
(PID.TID 0000.0001) >#--------------------
(PID.TID 0000.0001) >#  diagSt_mnc (logical): write stat-diags to NetCDF files (default=diag_mnc)
(PID.TID 0000.0001) >#  diagSt_regMaskFile : file containing the region-mask to read-in
(PID.TID 0000.0001) >#  nSetRegMskFile   : number of region-mask sets within the region-mask file
(PID.TID 0000.0001) >#  set_regMask(i)   : region-mask set-index that identifies the region "i"
(PID.TID 0000.0001) >#  val_regMask(i)   : region "i" identifier value in the region mask
(PID.TID 0000.0001) >#--for each output-stream:
(PID.TID 0000.0001) >#  stat_fName(n) : prefix of the output file name (max 80c long) for outp.stream n
(PID.TID 0000.0001) >#  stat_freq(n):< 0 : write snap-shot output every |stat_freq| seconds
(PID.TID 0000.0001) >#               > 0 : write time-average output every stat_freq seconds
(PID.TID 0000.0001) >#  stat_phase(n)    : write at time = stat_phase + multiple of |stat_freq|
(PID.TID 0000.0001) >#  stat_region(:,n) : list of "regions" (default: 1 region only=global)
(PID.TID 0000.0001) >#  stat_fields(:,n) : list of selected diagnostics fields (8.c) in outp.stream n
(PID.TID 0000.0001) >#                (see "available_diagnostics.log" file for the full list of diags)
(PID.TID 0000.0001) >#--------------------
(PID.TID 0000.0001) > &DIAG_STATIS_PARMS
(PID.TID 0000.0001) >#- regional mask: 3 lat. band: 1 : y <= -24 ; 2 : -24<y<24 ; 3 : 24 <= y
(PID.TID 0000.0001) > diagSt_regMaskFile='regMask_lat24.bin',
(PID.TID 0000.0001) > nSetRegMskFile = 1,
(PID.TID 0000.0001) > set_regMask(1:3) = 1,  1,  1,
(PID.TID 0000.0001) > val_regMask(1:3) = 1., 2., 3.,
(PID.TID 0000.0001) >#---
(PID.TID 0000.0001) > stat_fields(1:6,1)  = 'ETAN    ','ETANSQ  ','DETADT2 ',
(PID.TID 0000.0001) >#                      'UVEL    ','VVEL    ','WVEL    ',
(PID.TID 0000.0001) >                       'THETA   ','SALT    ','CONVADJ ',
(PID.TID 0000.0001) >  stat_fName(1) = 'dynStDiag',
(PID.TID 0000.0001) >   stat_freq(1) = 864000.,
(PID.TID 0000.0001) >#--- to check conservation of Volume, Heat & Salt (with z*+realFW+AB_2):
(PID.TID 0000.0001) > stat_fields(1:11,2) = 'oceTAUX ','oceTAUY ','TRELAX  ','SRELAX  ',
(PID.TID 0000.0001) >                       'surForcT','surForcS','TFLUX   ','SFLUX   ',
(PID.TID 0000.0001) >                       'oceQnet ','oceSflux','oceFWflx',
(PID.TID 0000.0001) >    stat_fName(2) = 'surfStDiag',
(PID.TID 0000.0001) >     stat_freq(2) = 777600.,
(PID.TID 0000.0001) >    stat_phase(2) = 86400.,
(PID.TID 0000.0001) > stat_fields(1:3,3)  = 'ETAN    ','THETA   ','SALT    ',
(PID.TID 0000.0001) >    stat_fName(3) = 'instStDiag',
(PID.TID 0000.0001) >     stat_freq(3) = -777600.,
(PID.TID 0000.0001) >    stat_phase(3) = 86400.,
(PID.TID 0000.0001) >#---
(PID.TID 0000.0001) > stat_fields(1:16,5) = 'SI_Fract','SI_Thick','SI_SnowH',
(PID.TID 0000.0001) >                       'SI_Tsrf ','SI_Tice1','SI_Tice2',
(PID.TID 0000.0001) >                       'SI_Qice1','SI_Qice2',
(PID.TID 0000.0001) >                       'SIsnwPrc','SIalbedo','SIsnwAge',
(PID.TID 0000.0001) >                       'SIflx2oc','SIfrw2oc','SIsaltFx',
(PID.TID 0000.0001) >                       'SIflxAtm','SIfrwAtm',
(PID.TID 0000.0001) >#                      'SItOcMxL','SIsOcMxL',
(PID.TID 0000.0001) > stat_region(1:3,5)  = 1, 3, 0,
(PID.TID 0000.0001) >  stat_fName(5) = 'thSIceStDiag',
(PID.TID 0000.0001) >   stat_freq(5) = 864000.,
(PID.TID 0000.0001) > /
(PID.TID 0000.0001) >
(PID.TID 0000.0001) 
(PID.TID 0000.0001) S/R DIAGNOSTICS_READPARMS, read namelist "diagnostics_list": start
(PID.TID 0000.0001) S/R DIAGNOSTICS_READPARMS, read namelist "diagnostics_list": OK
(PID.TID 0000.0001) S/R DIAGNOSTICS_READPARMS, read namelist "DIAG_STATIS_PARMS": start
(PID.TID 0000.0001) S/R DIAGNOSTICS_READPARMS, read namelist "DIAG_STATIS_PARMS": OK
(PID.TID 0000.0001)  DIAGNOSTICS_READPARMS: global parameter summary:
(PID.TID 0000.0001)  dumpAtLast = /* always write time-ave diags at the end */
(PID.TID 0000.0001)                   F
(PID.TID 0000.0001)     ;
(PID.TID 0000.0001)  diag_mnc =   /* write NetCDF output files */
(PID.TID 0000.0001)                   F
(PID.TID 0000.0001)     ;
(PID.TID 0000.0001)  useMissingValue = /* put MissingValue where mask = 0 */
(PID.TID 0000.0001)                   F
(PID.TID 0000.0001)     ;
(PID.TID 0000.0001)  diagCG_maxIters = /* max number of iters in diag_cg2d */
(PID.TID 0000.0001)                     200
(PID.TID 0000.0001)     ;
(PID.TID 0000.0001)  diagCG_resTarget = /* residual target for diag_cg2d */
(PID.TID 0000.0001)                 1.000000000000000E-07
(PID.TID 0000.0001)     ;
(PID.TID 0000.0001) -----------------------------------------------------
(PID.TID 0000.0001)  DIAGNOSTICS_READPARMS: active diagnostics summary:
(PID.TID 0000.0001) -----------------------------------------------------
(PID.TID 0000.0001) Creating Output Stream: surfDiag
(PID.TID 0000.0001) Output Frequency: 1555200000.000000 ; Phase:           0.000000
(PID.TID 0000.0001)  Averaging Freq.: 1555200000.000000 , Phase:           0.000000 , Cycle:   1
(PID.TID 0000.0001)  missing value:  1.234567000000E+05 ; for integers:   123456789
(PID.TID 0000.0001)  Levels:    will be set later
(PID.TID 0000.0001)  Fields:    ETAN     ETANSQ   DETADT2  PHIBOT   PHIBOTSQ oceTAUX  oceTAUY  TRELAX   SRELAX   surForcT
(PID.TID 0000.0001)  Fields:    surForcS TFLUX    SFLUX    oceQsw   oceQnet  oceSflux oceFWflx
(PID.TID 0000.0001) Creating Output Stream: dynDiag
(PID.TID 0000.0001) Output Frequency: 1555200000.000000 ; Phase:           0.000000
(PID.TID 0000.0001)  Averaging Freq.: 1555200000.000000 , Phase:           0.000000 , Cycle:   1
(PID.TID 0000.0001)  missing value:  1.234567000000E+05 ; for integers:   123456789
(PID.TID 0000.0001)  Levels:    will be set later
(PID.TID 0000.0001)  Fields:    UVEL     VVEL     WVEL     PHIHYD   VVELMASS UVELMASS WVELSQ   THETA    UTHMASS  VTHMASS
(PID.TID 0000.0001)  Fields:    WTHMASS  SALT     USLTMASS VSLTMASS WSLTMASS
(PID.TID 0000.0001) Creating Output Stream: thSIceDiag
(PID.TID 0000.0001) Output Frequency: 1555200000.000000 ; Phase:           0.000000
(PID.TID 0000.0001)  Averaging Freq.:    2592000.000000 , Phase:           0.000000 , Cycle:  12
(PID.TID 0000.0001)  missing value:  1.234567000000E+05 ; for integers:   123456789
(PID.TID 0000.0001)  Levels:    will be set later
(PID.TID 0000.0001)  Fields:    SI_Fract SI_Thick SI_SnowH SI_Tsrf  SI_Tice1 SI_Tice2 SI_Qice1 SI_Qice2 SIsnwAge SIsnwPrc
(PID.TID 0000.0001)  Fields:    SIalbedo SIflx2oc SIfrw2oc SIsaltFx SIflxAtm SIfrwAtm
(PID.TID 0000.0001) Creating Output Stream: surfInst
(PID.TID 0000.0001) Output Frequency:    -777600.000000 ; Phase:           0.000000
(PID.TID 0000.0001)  Averaging Freq.:          0.000000 , Phase:           0.000000 , Cycle:   1
(PID.TID 0000.0001)  missing value:  1.234567000000E+05 ; for integers:   123456789
(PID.TID 0000.0001)  Levels:    will be set later
(PID.TID 0000.0001)  Fields:    ETAN     oceFWflx
(PID.TID 0000.0001) Creating Output Stream: etaInst
(PID.TID 0000.0001) Output Frequency:    -777600.000000 ; Phase:       86400.000000
(PID.TID 0000.0001)  Averaging Freq.:          0.000000 , Phase:           0.000000 , Cycle:   1
(PID.TID 0000.0001)  missing value:  1.234567000000E+05 ; for integers:   123456789
(PID.TID 0000.0001)  Levels:    will be set later
(PID.TID 0000.0001)  Fields:    ETAN
(PID.TID 0000.0001) Creating Output Stream: dynInst
(PID.TID 0000.0001) Output Frequency:    -777600.000000 ; Phase:           0.000000
(PID.TID 0000.0001)  Averaging Freq.:          0.000000 , Phase:           0.000000 , Cycle:   1
(PID.TID 0000.0001)  missing value:  1.234567000000E+05 ; for integers:   123456789
(PID.TID 0000.0001)  Levels:    will be set later
(PID.TID 0000.0001)  Fields:    THETA    SALT
(PID.TID 0000.0001) -----------------------------------------------------
(PID.TID 0000.0001)  DIAGNOSTICS_READPARMS: statistics diags. summary:
(PID.TID 0000.0001) Creating Stats. Output Stream: dynStDiag
(PID.TID 0000.0001) Output Frequency:     864000.000000 ; Phase:           0.000000
(PID.TID 0000.0001)  Regions:   0
(PID.TID 0000.0001)  Fields:    ETAN     ETANSQ   DETADT2  THETA    SALT     CONVADJ
(PID.TID 0000.0001) Creating Stats. Output Stream: surfStDiag
(PID.TID 0000.0001) Output Frequency:     777600.000000 ; Phase:       86400.000000
(PID.TID 0000.0001)  Regions:   0
(PID.TID 0000.0001)  Fields:    oceTAUX  oceTAUY  TRELAX   SRELAX   surForcT surForcS TFLUX    SFLUX    oceQnet  oceSflux
(PID.TID 0000.0001)  Fields:    oceFWflx
(PID.TID 0000.0001) Creating Stats. Output Stream: instStDiag
(PID.TID 0000.0001) Output Frequency:    -777600.000000 ; Phase:       86400.000000
(PID.TID 0000.0001)  Regions:   0
(PID.TID 0000.0001)  Fields:    ETAN     THETA    SALT
(PID.TID 0000.0001) Creating Stats. Output Stream: thSIceStDiag
(PID.TID 0000.0001) Output Frequency:     864000.000000 ; Phase:           0.000000
(PID.TID 0000.0001)  Regions:   0  1  3
(PID.TID 0000.0001)  Fields:    SI_Fract SI_Thick SI_SnowH SI_Tsrf  SI_Tice1 SI_Tice2 SI_Qice1 SI_Qice2 SIsnwPrc SIalbedo
(PID.TID 0000.0001)  Fields:    SIsnwAge SIflx2oc SIfrw2oc SIsaltFx SIflxAtm SIfrwAtm
(PID.TID 0000.0001) -----------------------------------------------------
(PID.TID 0000.0001) 
(PID.TID 0000.0001) SET_PARMS: done
(PID.TID 0000.0001) Enter INI_VERTICAL_GRID: setInterFDr=    T ; setCenterDr=    F
(PID.TID 0000.0001) tile:   1 ; Read from file grid_cs32.face001.bin
(PID.TID 0000.0001)   => xC yC dxF dyF rA xG yG dxV dyU rAz dxC dyC rAw rAs dxG dyG AngleCS AngleSN
(PID.TID 0000.0001) tile:   2 ; Read from file grid_cs32.face001.bin
(PID.TID 0000.0001)   => xC yC dxF dyF rA xG yG dxV dyU rAz dxC dyC rAw rAs dxG dyG AngleCS AngleSN
(PID.TID 0000.0001) tile:   3 ; Read from file grid_cs32.face002.bin
(PID.TID 0000.0001)   => xC yC dxF dyF rA xG yG dxV dyU rAz dxC dyC rAw rAs dxG dyG AngleCS AngleSN
(PID.TID 0000.0001) tile:   4 ; Read from file grid_cs32.face002.bin
(PID.TID 0000.0001)   => xC yC dxF dyF rA xG yG dxV dyU rAz dxC dyC rAw rAs dxG dyG AngleCS AngleSN
(PID.TID 0000.0001) tile:   5 ; Read from file grid_cs32.face003.bin
(PID.TID 0000.0001)   => xC yC dxF dyF rA xG yG dxV dyU rAz dxC dyC rAw rAs dxG dyG AngleCS AngleSN
(PID.TID 0000.0001) tile:   6 ; Read from file grid_cs32.face003.bin
(PID.TID 0000.0001)   => xC yC dxF dyF rA xG yG dxV dyU rAz dxC dyC rAw rAs dxG dyG AngleCS AngleSN
(PID.TID 0000.0001) tile:   7 ; Read from file grid_cs32.face004.bin
(PID.TID 0000.0001)   => xC yC dxF dyF rA xG yG dxV dyU rAz dxC dyC rAw rAs dxG dyG AngleCS AngleSN
(PID.TID 0000.0001) tile:   8 ; Read from file grid_cs32.face004.bin
(PID.TID 0000.0001)   => xC yC dxF dyF rA xG yG dxV dyU rAz dxC dyC rAw rAs dxG dyG AngleCS AngleSN
(PID.TID 0000.0001) tile:   9 ; Read from file grid_cs32.face005.bin
(PID.TID 0000.0001)   => xC yC dxF dyF rA xG yG dxV dyU rAz dxC dyC rAw rAs dxG dyG AngleCS AngleSN
(PID.TID 0000.0001) tile:  10 ; Read from file grid_cs32.face005.bin
(PID.TID 0000.0001)   => xC yC dxF dyF rA xG yG dxV dyU rAz dxC dyC rAw rAs dxG dyG AngleCS AngleSN
(PID.TID 0000.0001) tile:  11 ; Read from file grid_cs32.face006.bin
(PID.TID 0000.0001)   => xC yC dxF dyF rA xG yG dxV dyU rAz dxC dyC rAw rAs dxG dyG AngleCS AngleSN
(PID.TID 0000.0001) tile:  12 ; Read from file grid_cs32.face006.bin
(PID.TID 0000.0001)   => xC yC dxF dyF rA xG yG dxV dyU rAz dxC dyC rAw rAs dxG dyG AngleCS AngleSN
(PID.TID 0000.0001) %MON XC_max                       =   1.7854351589505E+02
(PID.TID 0000.0001) %MON XC_min                       =  -1.7854351589505E+02
(PID.TID 0000.0001) %MON XC_mean                      =  -1.4199289892029E-14
(PID.TID 0000.0001) %MON XC_sd                        =   1.0355545336287E+02
(PID.TID 0000.0001) %MON XG_max                       =   1.8000000000000E+02
(PID.TID 0000.0001) %MON XG_min                       =  -1.7708797161002E+02
(PID.TID 0000.0001) %MON XG_mean                      =   1.8603515625000E+00
(PID.TID 0000.0001) %MON XG_sd                        =   1.0357130300504E+02
(PID.TID 0000.0001) %MON DXC_max                      =   3.2375185836900E+05
(PID.TID 0000.0001) %MON DXC_min                      =   1.1142031410131E+05
(PID.TID 0000.0001) %MON DXC_mean                     =   2.8605689051214E+05
(PID.TID 0000.0001) %MON DXC_sd                       =   3.4042087138252E+04
(PID.TID 0000.0001) %MON DXF_max                      =   3.2369947500827E+05
(PID.TID 0000.0001) %MON DXF_min                      =   1.2020820513318E+05
(PID.TID 0000.0001) %MON DXF_mean                     =   2.8605437324820E+05
(PID.TID 0000.0001) %MON DXF_sd                       =   3.4050524252539E+04
(PID.TID 0000.0001) %MON DXG_max                      =   3.2375195872773E+05
(PID.TID 0000.0001) %MON DXG_min                      =   1.0098378008791E+05
(PID.TID 0000.0001) %MON DXG_mean                     =   2.8603818508931E+05
(PID.TID 0000.0001) %MON DXG_sd                       =   3.4140406908005E+04
(PID.TID 0000.0001) %MON DXV_max                      =   3.2380418162750E+05
(PID.TID 0000.0001) %MON DXV_min                      =   8.0152299824136E+04
(PID.TID 0000.0001) %MON DXV_mean                     =   2.8603970633619E+05
(PID.TID 0000.0001) %MON DXV_sd                       =   3.4145142117723E+04
(PID.TID 0000.0001) %MON YC_max                       =   8.7940663871962E+01
(PID.TID 0000.0001) %MON YC_min                       =  -8.7940663871962E+01
(PID.TID 0000.0001) %MON YC_mean                      =  -2.3684757858670E-15
(PID.TID 0000.0001) %MON YC_sd                        =   3.8676242969072E+01
(PID.TID 0000.0001) %MON YG_max                       =   9.0000000000000E+01
(PID.TID 0000.0001) %MON YG_min                       =  -9.0000000000000E+01
(PID.TID 0000.0001) %MON YG_mean                      =  -4.1448326252673E-15
(PID.TID 0000.0001) %MON YG_sd                        =   3.8676895860710E+01
(PID.TID 0000.0001) %MON DYC_max                      =   3.2375185836900E+05
(PID.TID 0000.0001) %MON DYC_min                      =   1.1142031410131E+05
(PID.TID 0000.0001) %MON DYC_mean                     =   2.8605689051214E+05
(PID.TID 0000.0001) %MON DYC_sd                       =   3.4042087138252E+04
(PID.TID 0000.0001) %MON DYF_max                      =   3.2369947500827E+05
(PID.TID 0000.0001) %MON DYF_min                      =   1.2020820513318E+05
(PID.TID 0000.0001) %MON DYF_mean                     =   2.8605437324820E+05
(PID.TID 0000.0001) %MON DYF_sd                       =   3.4050524252539E+04
(PID.TID 0000.0001) %MON DYG_max                      =   3.2375195872773E+05
(PID.TID 0000.0001) %MON DYG_min                      =   1.0098378008791E+05
(PID.TID 0000.0001) %MON DYG_mean                     =   2.8603818508931E+05
(PID.TID 0000.0001) %MON DYG_sd                       =   3.4140406908005E+04
(PID.TID 0000.0001) %MON DYU_max                      =   3.2380418162750E+05
(PID.TID 0000.0001) %MON DYU_min                      =   8.0152299824136E+04
(PID.TID 0000.0001) %MON DYU_mean                     =   2.8603970633619E+05
(PID.TID 0000.0001) %MON DYU_sd                       =   3.4145142117723E+04
(PID.TID 0000.0001) %MON RA_max                       =   1.0479260248419E+11
(PID.TID 0000.0001) %MON RA_min                       =   1.4019007022556E+10
(PID.TID 0000.0001) %MON RA_mean                      =   8.2992246709265E+10
(PID.TID 0000.0001) %MON RA_sd                        =   1.7509089299457E+10
(PID.TID 0000.0001) %MON RAW_max                      =   1.0480965274559E+11
(PID.TID 0000.0001) %MON RAW_min                      =   1.2166903467143E+10
(PID.TID 0000.0001) %MON RAW_mean                     =   8.2992246709235E+10
(PID.TID 0000.0001) %MON RAW_sd                       =   1.7481917919656E+10
(PID.TID 0000.0001) %MON RAS_max                      =   1.0480965274559E+11
(PID.TID 0000.0001) %MON RAS_min                      =   1.2166903467143E+10
(PID.TID 0000.0001) %MON RAS_mean                     =   8.2992246709235E+10
(PID.TID 0000.0001) %MON RAS_sd                       =   1.7481917919656E+10
(PID.TID 0000.0001) %MON RAZ_max                      =   1.0484349334619E+11
(PID.TID 0000.0001) %MON RAZ_min                      =   8.8317900612505E+09
(PID.TID 0000.0001) %MON RAZ_mean                     =   8.2992246709235E+10
(PID.TID 0000.0001) %MON RAZ_sd                       =   1.7482297311044E+10
(PID.TID 0000.0001) %MON AngleCS_max                  =   9.9999994756719E-01
(PID.TID 0000.0001) %MON AngleCS_min                  =  -9.9968286884824E-01
(PID.TID 0000.0001) %MON AngleCS_mean                 =   3.3078850405987E-01
(PID.TID 0000.0001) %MON AngleCS_sd                   =   6.2496317138039E-01
(PID.TID 0000.0001) %MON AngleSN_max                  =   9.9968286884824E-01
(PID.TID 0000.0001) %MON AngleSN_min                  =  -9.9999994756719E-01
(PID.TID 0000.0001) %MON AngleSN_mean                 =  -3.3078850405987E-01
(PID.TID 0000.0001) %MON AngleSN_sd                   =   6.2496317138039E-01
(PID.TID 0000.0001)  MDS_READ_FIELD: opening global file: bathy_Hmin50.bin
(PID.TID 0000.0001) // =======================================================
(PID.TID 0000.0001) // Field Model R_low (ini_masks_etc)
(PID.TID 0000.0001) // CMIN =         -5.200000000000000E+03
(PID.TID 0000.0001) // CMAX =         -5.000000000000000E+01
(PID.TID 0000.0001) // CINT =          1.907407407407407E+02
(PID.TID 0000.0001) // SYMBOLS (CMIN->CMAX): -abcdefghijklmnopqrstuvwxyz+
(PID.TID 0000.0001) //                  0.0: .
(PID.TID 0000.0001) // RANGE I (Lo:Hi:Step):(    -3:   388:     1)
(PID.TID 0000.0001) // RANGE J (Lo:Hi:Step):(    20:    -3:    -1)
(PID.TID 0000.0001) // RANGE K (Lo:Hi:Step):(   1:   1:   1)
(PID.TID 0000.0001) // =======================================================
(PID.TID 0000.0001) K =   1
(PID.TID 0000.0001) //                I=6       I=16      I=26      I=36      I=38      I=48      I=58      I=68      I=70      I=80      I=90      I=100     I=102     I=112     I=122     I=132     I=134     I=144     I=154     I=164     I=166     I=176     I=186     I=196     I=198     I=208     I=218     I=228     I=230     I=240     I=250     I=260     I=262     I=272     I=282     I=292     I=294     I=304     I=314     I=324     I=326     I=336     I=346     I=356     I=358     I=368     I=378     I=388
(PID.TID 0000.0001) // |--J--|321012345|789012345|789012345|789012345|901234567|901234567|901234567|901234567|123456789|123456789|123456789|123456789|345678901|345678901|345678901|345678901|567890123|567890123|567890123|567890123|789012345|789012345|789012345|789012345|901234567|901234567|901234567|901234567|123456789|123456789|123456789|123456789|345678901|345678901|345678901|345678901|567890123|567890123|567890123|567890123|789012345|789012345|789012345|789012345|901234567|901234567|901234567|901234567|
(PID.TID 0000.0001) //     20 fbbbcgfcaa-aae+.......................lccbbc-ddcbcdehkhhmn..++........................lcgfdddhq.+hiilnz++.+oquxyz--adgkf................................okn.skkodcaabcfmtooyxz......+yuiiy....++gb--------a-fc----bba-cp.............tfeecccbbdegb--------ddcca-a-----acbaa------bbaaaabecccbbdeddedcdcccdddcddffggghiggfffdeeff........ywxy.lulo.lv...kcdgddffefffilyx+ijlihjlica---a--cgffel.+edfgeedflcbahgflfffilyx+fffk.+xyyy.........mgeimvskjkllllcbahgfllfhdffhkfffca-aady...llnabdoa--a
(PID.TID 0000.0001) //     19 zmfeccdghfeegcbt......................aadcac--cbbeefjkfefw+..........zpu..............aafifccgnrzgghjry.+++sr+lq.--edfkk................................kqnzrqqkoxtkblwnnsp.vv......skhggt...+++t---------b-da----bbbbfu..............fdddccaadct---------bdaf---------edd-------adlaaaaddccaadcdddcbbbbcdddcccdffffghgffffddeff+..........vnhzy.tllqiedccdhggfggffiiggflligfiljfba---aafddehy...pwvlhfffcbagfccgffiiggfcbdgy..yz..........xigqophijkkiifcbagfcceeffffjlkjgaa---bfvheeln-aesaaab
(PID.TID 0000.0001) //     18 ..wifedfkhfegbbcivlqfoz..............jaad--ba-abcehjnldcclz+........spps.............jaacfihggokeeffgt..++++..hhlfdeddke...............................vkqn+xnnnz..qcz+.zwxtsttz..ysrkhot++++++zig------cabbcbba--aabfu+..............hcbaaaaaccig--------b--f---------egqqqaa----frb---baaaaaccdccbaaabbddddccdffffghfeeeeedeff+........+kkrhw.vqmlnieddcdehgggffgigedbjiffefilhfcaaaacgceei.......zomggfcaecbbffgigedbaaceiy.............zilrddefikkhhgfcaecbbccddefilihecbaacbaajfega-aesfeed
(PID.TID 0000.0001) //     17 ..+wfeefikhgcbbccaaacgn.............icaa--abbbccceiomkfdbbc+.......+s...............icaaccfihfoedddeedy..++...nnqwgfeeke...............................xsrxzz+z.yy.z++..+zsjjllllljllpjos+++.+zhhi-----efdcddb-----adu+...............hcbaa--acchi-----e-----ea--------foqqoqqo--hlwgea-baa--accddba--bbbddddccdfffhhgfeeddccedd.........+nk+..xiioonhfefddegihhghigfdbahfeddfgikhfffdfgccffw........zohhgebbaaaghigfdbaaabdgx..............nheddefiklhghgebbaaaaaccdfhlhfefdcccaabjefbaaafoosso
(PID.TID 0000.0001) //     16 ....wiheddeccdfhfbabdfl............jdbad--bddefhhkqqlgfaakqz..v.+..+...............jdbaddddgifkccccdccd+.++..++ynvz.tkkq.............................++..u+....z.mu....++zyslllllkhggkmpy++...ihhi-----eigfdba----adu+................kdcaaa-acchi-----ea---feb-----a-acnoohfghknvmwnucacaaa-accdcb---bbbcdddddefffggfeeedcccccb..........qhu..hhhkojgffgeefghihhiieedbaccbbdcdfgghhiihcbeiw.........+ynjgebaaaahiieedbaaabcdy..............ygddeghiljgfjgebaaaa-aacccfikkhecccbbbaaabaadfklnqpp
(PID.TID 0000.0001) //     15 ......ylea--acfihebcbbes..........sfcbbnabbcffijnpnqneaaat..umrr+s.z..............sfcbbngfffigcaaabdbcac+.+++++zgmpx...y.............................+++++.ztsvd.mm....++..zslwz.yhhhhnz+++...rhgc----ablifeb--dfdfu+................+lkdca--abcgc----ab----ige----acaaalllkddfiy..yswxbdca--abcccb---bbbbddddeffflhfeeeecbbbbaa..........thk.xgghiligfghfefhhhhiiheedcdba-abbacbcdceffbbfw+..........++ujfbaaa-iiheedcdbbabdmz.............zfdeghikkifdujfbaaa----aacffiljgfffcca--adfikkiihhhf
(PID.TID 0000.0001) //     14 ........c---acgkhdcc--di..........ofddch--adgillkkkifcadcx.ymmqzqikvnnps..........ofddchohffikaaaaabaaa-aw+.+ysnggox++...............................+++++wmegt-.qrv..........yzzzzrjil+++....qhgd-----ajlifcacdlqx+++...............mligea---abgd-----a-----i---cccdeabkklldinqssy..xxvgea---abbbb---abaaddddeedkmeddefdbbbaaaa...........+y.uhghikihgfghefgihhhgeeeeedbc---b--aaaaabaabm..............+viba---hgeeeeeddbaadhw.............nedeghjjhfed+viba-------acdefinmlgiieb-chnnnmlmlgffc
(PID.TID 0000.0001) //     13 .......+b----cfkhec---afz.........nhfdff--cfiljigfjd--efdozy...+ximpnnuz..........nhfdffholghkaaaaaba-a---flkkuswyy++++y..............................+++yqddhp-+zr...........zzzzz++ry++......yd-------iljhcbbchz+......++.........+mmhffc----ad--------------aeecdeidfkkqnqlmqquukqqmfffc----aaba------acdddcbcineddgdbaaa----..............iihiijjhfefgefhjihiffgggffcdd--a------aa-bfz...............+qe---aiffgggffecaabelx...........zjecehijhfecc.+qe---aa---aedeegknmlgiigcdfhpokkimlfdb
(PID.TID 0000.0001) //     12 .......ec----chjhec---ag..........skiqdd-abgkhfcccea-bdei........t................skiqddeiiiifaaabae--a---dd--iu+++.+++s..............................++zwgfcfk-xq++..........+z+++++.+++....++.s-------gknhccbbhwwy.....+++........+njfeed-----s------------a-ceccdejhlllkqlkklssiccdeeeed-----aa-------abddcabcnfddegcaaa-----.............wjkkkjjjigeefffgjiiighiiihhhlf------------dk+................+ja---ighiiihhhdaabdffghtxx......mfccehjiffdb-..+ja------bffdddehfd--bedaacfhpnligiihd
(PID.TID 0000.0001) //     11 ......pdca--achlheba--ai..........nkn.fd-acghfbaaaa-achmy......................+..nkn.fdemijidaaaabi-------a--q+....++.z.......+++....................++vnbbbcleiis...........+++++..........+yyza----b-fkpkeeecflmqxy....++........+lhfeecc----za----b-----a--ccccddkhieekkossssfbbbbcdeecc------------aaadcbabcfhddccba-------............njjijhhihijhgggggjjjjijkkkkjzqd-----------irw.................++e---jijkkkkjjhcaacddeegpy.....xfdccdhjgfdda-..++e-----mhmijddda--------ahhfiokhedegg
(PID.TID 0000.0001) //     10 ......wfdb--achlhea---an.........uos..dc-adhfca-----bfiv.......................+.uos..dcemikkfdcaabi-------equ+................++sy...................+tq-fdbblcmk...........................zyvuq----ccjknqiheddefhiksz++++........zkhfdccb----uq----cc----a---dcfhkopqjeissrnpfbbcccdedccb------------aabdcaaaacfddbca-------a..........zslihhigghgijjihhhhkllkkkkkkjk+xfa-abb-----vvv...................+wa--kkkkkkjkkkedccdeeeeipz..zwhccbcdhgfddcam...+wa---mlmkijhc----------cjjffiheb-aad
(PID.TID 0000.0001) //      9 ......vgec---bfikca--cjl+.......+nnv.+cc-achfa------ch+..................w......+nnv.+ccffhkkiddaadha-----as++...........w.......njo+................+x-----bcgipvz++........................zxuuk------diqqojfefiiiijmy.++.........zkhfdbaa----uk------a---a----djmqrrnlllsoiddcccccdjfdbaa-------daa---acccaaaacccca--------ac.........+zjijhfgfggffhjkkkiillljihhghgi.+udaabbb----tei...................++qdejihhghgihighdeeffgghimnnjgecbbcdgfeccbas...++qdeqnghiljcaaaaidaa----beedeeca--bb
(PID.TID 0000.0001) //      8 .....zleca---afjfca--hdfz.......vkky.jceaaeifa--acbcei...................w......vkky.jceddefijffdddhb--a-afv.............w.......likn+.....++.....++znpa----bbdinn..ss.........................+yku------fnlmnjhinlksssw............qhfeca------yku--------------ejnpqqnninnritqdccchkmfca--------addc--aeffaaaaaaccb-a----a--bd+.......wihgghgeffffeefhijkjkljiigeeffef.++udbbaba---ven....................++xyigeeffefffhjhhikkklljklmhffeeeggfdcbaay.....++xywnfgllcbbabegkecba----ddddcaacdc
(PID.TID 0000.0001) //      7 ...+zohec--abcfkhecbchbdx.......qiht.faaabfida-aabchjk...................zz.....qiht.faaaabdgijgfededcdcb-f+.............zz.....nhhijz....tqq.....+ujgzgd---abcinn...pz.........................+zu------cegklkkknols..xuu..........zgfdba------+zu--------------edefqgqddsz+......+yuddba--------bcd---affaaadffabbb-----aa-bccmm+....tiggfggfeeeefeeefiiiijkiihheddddd.+.+ufb-----l.gx...........s.........++zhheddddddddjjllliijhfkmmkkjjhijgdcba--q......++zzkfilfccccoz..ulkcd---bccnfddddd
(PID.TID 0000.0001) //      6 ..+yomfddcaabefkifdchaadt......uqdeisc---afhfaa---bfgi....................zz..rnqdeisc----dfefgifffkklldc--v..............zz..rnjffggm...nlmn+....+sffzya--aabciup...pp.........................v.x-----eaaffdfhimrmp...yuu.++.......zudba------v.x---------a----fbbpqgzenx+........zdbcba--------adc---dda-adffe-aa--------aaacmllkhhfffffffgfeeeeeeeefhhhhijihhffddcbb....+ufc-baaqvhh..........dcfeeh......++hffddcbbbbdhhiihedddb-cfhhhjjjieca----+.......++zggqvifefhz......zobbaccfwuffeee
(PID.TID 0000.0001) //      5 ..+nhgffkghccfhkhffgdaackz....uoibcimlaababcgca----abe.....................ysstlibcimlaaacfbddfjjhijeehf-a-c...............ysstlgeeeeoz..ijklt+....lfjzzf---adfczs...su.........................qk.yi---fdaadcehllotq....yy+++zzs.....+zcba-----qk.yi-------gha-fjddqs+xkrz.........q-bccba-------cdd--aaa----df------------aaachikdccdeeeeeeedddedddddgghhhhjhhgffcbbaa.....+upjdcy.vohq.......+idcdfeeefwz....gffcbbaaaaddfegecca----dfeefhfgdb-----+.efwz....+hhn.vklox.........gdccfjwrigffh
(PID.TID 0000.0001) //      4 .+ujhgfllfhdffhkfffca-aady...llnabdopfcbfbbbcgfcaa-aae+.......................lcabdopfcbdgdbcdehlihgfddc--ms..................lcgfdddhq.+hiilnz++.+oquxyz--adgkf................................okn.zd--dcaabcfmtooyxz......+yuiiy....++gb------okn.zd---eciiiicfkeeqy.ysz..........n-aagb--------ddcca-a-----acbaa------bbaaaabfgdcbbdeddedcdcccdddcddffggghiggfffdbaa-........ywxy.lulo.lv...kcdgddffefffilyx+fffdbaa---acdcccba--abvfedeffdcca----b+.fffilyx+fffk.+xyyy.........mgeimvskjklll
(PID.TID 0000.0001) //      3 +vjggfcceeffffjlkjgaa---bfvheeln-aesphfdzmfeccdghfeegcbt......................aa-aesphfdhgabddeflihhgfecbaaayq+++++...........aafifccgnrzgghjry.+++sr+lq.--edfkk................................kqnz.vtpoxtkblwnnsp.vv......skhggt...+++t-------kqnz.vtpkllgdccfkkkkk..++..........+g---t---------bdaf---------edd-------adlaaaafecaaadcdddcbbbbcdddcccdffffghgffffdcaa-+..........vnhzy.tllqiedccdhggfggffiiggffffdcaa----abcaaaa-acxxmecdjmdbba----r+.gffiiggfcbdgy..yz..........xigqophijkkii
(PID.TID 0000.0001) //      2 qifeecbbccddefilihecbaacbaajfega-aesqhff..wifedfkhfegbbcivlqfoz..............jaa-aesqhffiea-cdeflkkljifeddcba---bry+.........jaacfihggokeeffgt..++++..hhlfdeddke...............................vkqn+.sghz..qcz+.zwxtsttz..ysrkhot++++++zig------kqn+.sghfcbcbbbdgfdek.++++.........+l---ig--------b--f---------egqqqaa----frb---caaaaaccdccbaaabbddddccdffffghfeeeeecba-+........+kkrhw.vqmlnieddcdehgggffgigedbeeeecba------baaaa-euwxqdbcdkud-----sy+.ffgigedbaaceiy.............zilrddefikkhh
(PID.TID 0000.0001) //      1 ebbbbaaaaaccdfhlhfefdcccaabjefbaaafonhgl..+wfeefikhgcbbccaaacgn.............icaaaafonhglid--adfgkkkklkhffddca-----s++++.....icaaccfihfoedddeedy..++...nnqwgfeeke...............................xsrxz.tedyy.z++..+zsjjllllljllpjos+++.+zhhi-----esrxz.tedcbbbbaaadddet.++++.........+l---hi-----e-----ea--------foqqoqqo--hlwgea----a-accddba--bbbddddccdfffhhgfeeddccba-.........+nk+..xiioonhfefddegihhghigfdbaeddccba-------aaaabgns.qcbcchyzqngll++..ghigfdbaaabdgx..............nheddefiklhg
(PID.TID 0000.0001) //      0 -aaaaaaa-aacccfikkhecccbbbaaabaadfkllilm....wiheddeccdfhfbabdfl............jdbaddfkllilmgebaadfijjiiikjhffdcba-----lllgn...jdbaddddgifkccccdccd+.++..++ynvz.tkkq.............................++..u+..zmd.mu....++zyslllllkhggkmpy++...ihhi-----e.u+..zmdfbd---a-aeef.xx+..........+++s--hi-----ea---feb-----a-acnoohfghknvmwnuca-----accdcb---bbbcdddddefffggfeeedcccbba..........qhu..hhhkojgffgeefghihhiieedbaedcccbba----aa--alrwwy.kcbccc+...++++...hiieedbaaabcdy..............ygddeghiljgf
(PID.TID 0000.0001) //     -1 --aaaaa----aacffiljgfffcca--adfikkiikimi......ylea--acfihebcbbes..........sfcbbnkkiikimiiheccfurkiffhijjigfecb-----l----..sfcbbngfffigcaaabdbcac+.+++++zgmpx...y.............................+++++.z+.wq.mm....++..zslwz.yhhhhnz+++...rhgc----ab++.z+.wqgbf-------dgzpoy+........+ys+yrbgc----ab----ige----acaaalllkddfiy..yswxb--aa-abcccb---bbbbddddeffflhfeeeecbbcbba..........thk.xgghiligfghfefhhhhiiheedcdecbbcbbaa----a--bdflm.yuibbcc.......+...iiheedcdbbabdmz.............zfdeghikkifd
(PID.TID 0000.0001) //     -2 --aaa-------acdefinmlgiieb-chnnnmlmlfklk........c---acgkhdcc--di..........ofddchmlmlfklklkhednwwsheeghhijjgfdca----g---a..ofddchohffikaaaaabaaa-aw+.+ysnggox++...............................+++++wmu++y.qrv..........yzzzzrjil+++....qhgd-----a++wmu++ywn--------fwvmgy+........+r-.+++gd-----a-----i---cccdeabkklldinqssy..xxv-abc--abbbb---abaaddddeedkmeddefdbbbdcba...........+y.uhghikihgfghefgihhhgeeeeeddbbbdcbaa-------ba-hv.susfbcc.......+...hgeeeeeddbaadhw.............nedeghjjhfed
(PID.TID 0000.0001) //     -3 a--a---aa---aedeegknmlgiigcdfhpokkimdkmk.......+b----cfkhec---afz.........nhfdffkkimdkmknoiedcfjvpddegghhhhgfdcbaa-n---a..nhfdffholghkaaaaaba-a---flkkuswyy++++y..............................+++yqd.++++zr...........zzzzz++ry++......yd-------+yqd.+++zvq--dafz.lqnggw+........+b-....d--------------aeecdeidfkkqnqlmqquukqqmfabcc---aaba------acdddcbcineddgdbaaaeedb..............iihiijjhfefgefhjihiffgggffbaaaeedbaa----------nysqssfcd...........iffgggffecaabelx...........zjecehijhfecc
(PID.TID 0000.0001) // =======================================================
(PID.TID 0000.0001) // END OF FIELD                                          =
(PID.TID 0000.0001) // =======================================================
(PID.TID 0000.0001) 
(PID.TID 0000.0001) // =======================================================
(PID.TID 0000.0001) // Field Model Ro_surf (ini_masks_etc)
(PID.TID 0000.0001) // CMIN =         -7.105427357601002E-15
(PID.TID 0000.0001) // CMAX =         -7.105427357601002E-15
(PID.TID 0000.0001) // CINT =          0.000000000000000E+00
(PID.TID 0000.0001) // SYMBOLS (CMIN->CMAX): -abcdefghijklmnopqrstuvwxyz+
(PID.TID 0000.0001) //                  0.0: .
(PID.TID 0000.0001) // RANGE I (Lo:Hi:Step):(    -3:   388:     1)
(PID.TID 0000.0001) // RANGE J (Lo:Hi:Step):(    20:    -3:    -1)
(PID.TID 0000.0001) // RANGE K (Lo:Hi:Step):(   1:   1:   1)
(PID.TID 0000.0001) // =======================================================
(PID.TID 0000.0001) // =======================================================
(PID.TID 0000.0001) // END OF FIELD                                          =
(PID.TID 0000.0001) // =======================================================
(PID.TID 0000.0001) 
(PID.TID 0000.0001) // =======================================================
(PID.TID 0000.0001) // Field hFacC at iteration          0
(PID.TID 0000.0001) // CMIN =          1.000000000000000E+00
(PID.TID 0000.0001) // CMAX =          1.000000000000000E+00
(PID.TID 0000.0001) // CINT =          0.000000000000000E+00
(PID.TID 0000.0001) // SYMBOLS (CMIN->CMAX): -abcdefghijklmnopqrstuvwxyz+
(PID.TID 0000.0001) //                  0.0: .
(PID.TID 0000.0001) // RANGE I (Lo:Hi:Step):(    -3:   388:     1)
(PID.TID 0000.0001) // RANGE J (Lo:Hi:Step):(    20:    -3:    -1)
(PID.TID 0000.0001) // RANGE K (Lo:Hi:Step):(   1:   1:   1)
(PID.TID 0000.0001) // =======================================================
(PID.TID 0000.0001) // =======================================================
(PID.TID 0000.0001) // END OF FIELD                                          =
(PID.TID 0000.0001) // =======================================================
(PID.TID 0000.0001) 
(PID.TID 0000.0001) // =======================================================
(PID.TID 0000.0001) // Field hFacW at iteration          0
(PID.TID 0000.0001) // CMIN =          1.000000000000000E+00
(PID.TID 0000.0001) // CMAX =          1.000000000000000E+00
(PID.TID 0000.0001) // CINT =          0.000000000000000E+00
(PID.TID 0000.0001) // SYMBOLS (CMIN->CMAX): -abcdefghijklmnopqrstuvwxyz+
(PID.TID 0000.0001) //                  0.0: .
(PID.TID 0000.0001) // RANGE I (Lo:Hi:Step):(    -3:   388:     1)
(PID.TID 0000.0001) // RANGE J (Lo:Hi:Step):(    20:    -3:    -1)
(PID.TID 0000.0001) // RANGE K (Lo:Hi:Step):(   1:   1:   1)
(PID.TID 0000.0001) // =======================================================
(PID.TID 0000.0001) // =======================================================
(PID.TID 0000.0001) // END OF FIELD                                          =
(PID.TID 0000.0001) // =======================================================
(PID.TID 0000.0001) 
(PID.TID 0000.0001) // =======================================================
(PID.TID 0000.0001) // Field hFacS at iteration          0
(PID.TID 0000.0001) // CMIN =          1.000000000000000E+00
(PID.TID 0000.0001) // CMAX =          1.000000000000000E+00
(PID.TID 0000.0001) // CINT =          0.000000000000000E+00
(PID.TID 0000.0001) // SYMBOLS (CMIN->CMAX): -abcdefghijklmnopqrstuvwxyz+
(PID.TID 0000.0001) //                  0.0: .
(PID.TID 0000.0001) // RANGE I (Lo:Hi:Step):(    -3:   388:     1)
(PID.TID 0000.0001) // RANGE J (Lo:Hi:Step):(    20:    -3:    -1)
(PID.TID 0000.0001) // RANGE K (Lo:Hi:Step):(   1:   1:   1)
(PID.TID 0000.0001) // =======================================================
(PID.TID 0000.0001) // =======================================================
(PID.TID 0000.0001) // END OF FIELD                                          =
(PID.TID 0000.0001) // =======================================================
(PID.TID 0000.0001) 
(PID.TID 0000.0001) GAD_INIT_FIXED: GAD_OlMinSize=  1  0  1
(PID.TID 0000.0001) 
(PID.TID 0000.0001) // ===================================
(PID.TID 0000.0001) // GAD parameters :
(PID.TID 0000.0001) // ===================================
(PID.TID 0000.0001) tempAdvScheme =   /* Temp. Horiz.Advection scheme selector */
(PID.TID 0000.0001)                       2
(PID.TID 0000.0001)     ;
(PID.TID 0000.0001) tempVertAdvScheme =   /* Temp. Vert. Advection scheme selector */
(PID.TID 0000.0001)                       2
(PID.TID 0000.0001)     ;
(PID.TID 0000.0001) tempMultiDimAdvec =   /* use Muti-Dim Advec method for Temp */
(PID.TID 0000.0001)                   F
(PID.TID 0000.0001)     ;
(PID.TID 0000.0001) tempSOM_Advection = /* use 2nd Order Moment Advection for Temp */
(PID.TID 0000.0001)                   F
(PID.TID 0000.0001)     ;
(PID.TID 0000.0001) AdamsBashforthGt = /* apply Adams-Bashforth extrapolation on Gt */
(PID.TID 0000.0001)                   T
(PID.TID 0000.0001)     ;
(PID.TID 0000.0001) AdamsBashforth_T = /* apply Adams-Bashforth extrapolation on Temp */
(PID.TID 0000.0001)                   F
(PID.TID 0000.0001)     ;
(PID.TID 0000.0001) saltAdvScheme =   /* Salt. Horiz.advection scheme selector */
(PID.TID 0000.0001)                       2
(PID.TID 0000.0001)     ;
(PID.TID 0000.0001) saltVertAdvScheme =   /* Salt. Vert. Advection scheme selector */
(PID.TID 0000.0001)                       2
(PID.TID 0000.0001)     ;
(PID.TID 0000.0001) saltMultiDimAdvec =   /* use Muti-Dim Advec method for Salt */
(PID.TID 0000.0001)                   F
(PID.TID 0000.0001)     ;
(PID.TID 0000.0001) saltSOM_Advection = /* use 2nd Order Moment Advection for Salt */
(PID.TID 0000.0001)                   F
(PID.TID 0000.0001)     ;
(PID.TID 0000.0001) AdamsBashforthGs = /* apply Adams-Bashforth extrapolation on Gs */
(PID.TID 0000.0001)                   T
(PID.TID 0000.0001)     ;
(PID.TID 0000.0001) AdamsBashforth_S = /* apply Adams-Bashforth extrapolation on Salt */
(PID.TID 0000.0001)                   F
(PID.TID 0000.0001)     ;
(PID.TID 0000.0001) // ===================================
(PID.TID 0000.0001) ------------------------------------------------------------
(PID.TID 0000.0001) DIAGNOSTICS_SET_LEVELS: done
(PID.TID 0000.0001)  Total Nb of available Diagnostics: ndiagt=   244
(PID.TID 0000.0001)  write list of available Diagnostics to file: available_diagnostics.log
(PID.TID 0000.0001) SETDIAG: Allocate  1 x  1 Levels for Diagnostic #    23 ETAN
(PID.TID 0000.0001) SETDIAG: Allocate  1 x  1 Levels for Diagnostic #    24 ETANSQ
(PID.TID 0000.0001) SETDIAG: Allocate  1 x  1 Levels for Diagnostic #    25 DETADT2
(PID.TID 0000.0001) SETDIAG: Allocate  1 x  1 Levels for Diagnostic #    73 PHIBOT
(PID.TID 0000.0001) SETDIAG: Allocate  1 x  1 Levels for Diagnostic #    74 PHIBOTSQ
(PID.TID 0000.0001) SETDIAG: Allocate  1 x  1 Levels for Diagnostic #    80 oceTAUX
(PID.TID 0000.0001) SETDIAG: Allocate  1 x  1 Levels for Diagnostic #    81 oceTAUY
(PID.TID 0000.0001) SETDIAG: Allocate  1 x  1 Levels for Diagnostic #    89 TRELAX
(PID.TID 0000.0001) SETDIAG: Allocate  1 x  1 Levels for Diagnostic #    90 SRELAX
(PID.TID 0000.0001) SETDIAG: Allocate  1 x  1 Levels for Diagnostic #    91 surForcT
(PID.TID 0000.0001) SETDIAG: Allocate  1 x  1 Levels for Diagnostic #    92 surForcS
(PID.TID 0000.0001) SETDIAG: Allocate  1 x  1 Levels for Diagnostic #    93 TFLUX
(PID.TID 0000.0001) SETDIAG: Allocate  1 x  1 Levels for Diagnostic #    94 SFLUX
(PID.TID 0000.0001) SETDIAG: Allocate  1 x  1 Levels for Diagnostic #    87 oceQsw
(PID.TID 0000.0001) SETDIAG: Allocate  1 x  1 Levels for Diagnostic #    86 oceQnet
(PID.TID 0000.0001) SETDIAG: Allocate  1 x  1 Levels for Diagnostic #    85 oceSflux
(PID.TID 0000.0001) SETDIAG: Allocate  1 x  1 Levels for Diagnostic #    84 oceFWflx
(PID.TID 0000.0001) SETDIAG: Allocate 15 x  1 Levels for Diagnostic #    30 UVEL
(PID.TID 0000.0001) SETDIAG: Allocate 15 x  1 Levels for Diagnostic #    31 VVEL
(PID.TID 0000.0001) SETDIAG: Allocate 15 x  1 Levels for Diagnostic #    32 WVEL
(PID.TID 0000.0001) SETDIAG: Allocate 15 x  1 Levels for Diagnostic #    71 PHIHYD
(PID.TID 0000.0001) SETDIAG: Allocate 15 x  1 Levels for Diagnostic #    46 VVELMASS
(PID.TID 0000.0001) SETDIAG: Allocate 15 x  1 Levels for Diagnostic #    45 UVELMASS
(PID.TID 0000.0001) SETDIAG: Allocate 15 x  1 Levels for Diagnostic #    38 WVELSQ
(PID.TID 0000.0001) SETDIAG: Allocate 15 x  1 Levels for Diagnostic #    26 THETA
(PID.TID 0000.0001) SETDIAG: Allocate 15 x  1 Levels for Diagnostic #    50 UTHMASS
(PID.TID 0000.0001) SETDIAG: Allocate 15 x  1 Levels for Diagnostic #    51 VTHMASS
(PID.TID 0000.0001) SETDIAG: Allocate 15 x  1 Levels for Diagnostic #    52 WTHMASS
(PID.TID 0000.0001) SETDIAG: Allocate 15 x  1 Levels for Diagnostic #    27 SALT
(PID.TID 0000.0001) SETDIAG: Allocate 15 x  1 Levels for Diagnostic #    53 USLTMASS
(PID.TID 0000.0001) SETDIAG: Allocate 15 x  1 Levels for Diagnostic #    54 VSLTMASS
(PID.TID 0000.0001) SETDIAG: Allocate 15 x  1 Levels for Diagnostic #    55 WSLTMASS
(PID.TID 0000.0001) SETDIAG: Allocate  1 x 12 Levels for Diagnostic #   211 SI_Fract
(PID.TID 0000.0001) SETDIAG: Allocate  1 x 12 Levels for Diagnostic #   212 SI_Thick
(PID.TID 0000.0001) - NOTE - SETDIAG: Counter-mate #   211 SI_Fract is already set
(PID.TID 0000.0001) SETDIAG: Allocate  1 x 12 Levels for Diagnostic #   213 SI_SnowH
(PID.TID 0000.0001) - NOTE - SETDIAG: Counter-mate #   211 SI_Fract is already set
(PID.TID 0000.0001) SETDIAG: Allocate  1 x 12 Levels for Diagnostic #   214 SI_Tsrf
(PID.TID 0000.0001) - NOTE - SETDIAG: Counter-mate #   211 SI_Fract is already set
(PID.TID 0000.0001) SETDIAG: Allocate  1 x 12 Levels for Diagnostic #   215 SI_Tice1
(PID.TID 0000.0001) - NOTE - SETDIAG: Counter-mate #   211 SI_Fract is already set
(PID.TID 0000.0001) SETDIAG: Allocate  1 x 12 Levels for Diagnostic #   216 SI_Tice2
(PID.TID 0000.0001) - NOTE - SETDIAG: Counter-mate #   211 SI_Fract is already set
(PID.TID 0000.0001) SETDIAG: Allocate  1 x 12 Levels for Diagnostic #   217 SI_Qice1
(PID.TID 0000.0001) - NOTE - SETDIAG: Counter-mate #   212 SI_Thick is already set
(PID.TID 0000.0001) SETDIAG: Allocate  1 x 12 Levels for Diagnostic #   218 SI_Qice2
(PID.TID 0000.0001) - NOTE - SETDIAG: Counter-mate #   212 SI_Thick is already set
(PID.TID 0000.0001) SETDIAG: Allocate  1 x 12 Levels for Diagnostic #   219 SIsnwAge
(PID.TID 0000.0001) SETDIAG: Allocate  1 x 12 Levels for Diagnostic #   222 SIsnwPrc
(PID.TID 0000.0001) SETDIAG: Allocate  1 x 12 Levels for Mate Diag. #   220 SI_FrcFx
(PID.TID 0000.0001) SETDIAG: Allocate  1 x 12 Levels for Diagnostic #   221 SIalbedo
(PID.TID 0000.0001) - NOTE - SETDIAG: Counter-mate #   220 SI_FrcFx is already set
(PID.TID 0000.0001) SETDIAG: Allocate  1 x 12 Levels for Diagnostic #   225 SIflx2oc
(PID.TID 0000.0001) SETDIAG: Allocate  1 x 12 Levels for Diagnostic #   226 SIfrw2oc
(PID.TID 0000.0001) SETDIAG: Allocate  1 x 12 Levels for Diagnostic #   227 SIsaltFx
(PID.TID 0000.0001) SETDIAG: Allocate  1 x 12 Levels for Diagnostic #   223 SIflxAtm
(PID.TID 0000.0001) SETDIAG: Allocate  1 x 12 Levels for Diagnostic #   224 SIfrwAtm
(PID.TID 0000.0001) SETDIAG: Allocate  1 x  1 Levels for Diagnostic #    23 ETAN
(PID.TID 0000.0001) SETDIAG: Allocate  1 x  1 Levels for Diagnostic #    84 oceFWflx
(PID.TID 0000.0001) SETDIAG: Allocate  1 x  1 Levels for Diagnostic #    23 ETAN
(PID.TID 0000.0001) SETDIAG: Allocate 15 x  1 Levels for Diagnostic #    26 THETA
(PID.TID 0000.0001) SETDIAG: Allocate 15 x  1 Levels for Diagnostic #    27 SALT
(PID.TID 0000.0001)   space allocated for all diagnostics:     479 levels
(PID.TID 0000.0001)   set mate pointer for diag #    80  oceTAUX  , Parms: UU      U1 , mate:    81
(PID.TID 0000.0001)   set mate pointer for diag #    81  oceTAUY  , Parms: VV      U1 , mate:    80
(PID.TID 0000.0001)   set mate pointer for diag #    30  UVEL     , Parms: UUR     MR , mate:    31
(PID.TID 0000.0001)   set mate pointer for diag #    31  VVEL     , Parms: VVR     MR , mate:    30
(PID.TID 0000.0001)   set mate pointer for diag #    46  VVELMASS , Parms: VVr     MR , mate:    45
(PID.TID 0000.0001)   set mate pointer for diag #    45  UVELMASS , Parms: UUr     MR , mate:    46
(PID.TID 0000.0001)   set mate pointer for diag #    50  UTHMASS  , Parms: UUr     MR , mate:    51
(PID.TID 0000.0001)   set mate pointer for diag #    51  VTHMASS  , Parms: VVr     MR , mate:    50
(PID.TID 0000.0001)   set mate pointer for diag #    53  USLTMASS , Parms: UUr     MR , mate:    54
(PID.TID 0000.0001)   set mate pointer for diag #    54  VSLTMASS , Parms: VVr     MR , mate:    53
(PID.TID 0000.0001) DIAGNOSTICS_SET_POINTERS: Set levels for Outp.Stream: surfDiag
(PID.TID 0000.0001)  Levels:       1.
(PID.TID 0000.0001) DIAGNOSTICS_SET_POINTERS: Set levels for Outp.Stream: dynDiag
(PID.TID 0000.0001)  Levels:       1.   2.   3.   4.   5.   6.   7.   8.   9.  10.  11.  12.  13.  14.  15.
(PID.TID 0000.0001) DIAGNOSTICS_SET_POINTERS: Set levels for Outp.Stream: thSIceDiag
(PID.TID 0000.0001)  Levels:       1.
(PID.TID 0000.0001) DIAGNOSTICS_SET_POINTERS: Set levels for Outp.Stream: surfInst
(PID.TID 0000.0001)  Levels:       1.
(PID.TID 0000.0001) DIAGNOSTICS_SET_POINTERS: Set levels for Outp.Stream: etaInst
(PID.TID 0000.0001)  Levels:       1.
(PID.TID 0000.0001) DIAGNOSTICS_SET_POINTERS: Set levels for Outp.Stream: dynInst
(PID.TID 0000.0001)  Levels:       1.   2.   3.   4.   5.   6.   7.   8.   9.  10.  11.  12.  13.  14.  15.
(PID.TID 0000.0001) DIAGNOSTICS_SET_POINTERS: done
(PID.TID 0000.0001) ------------------------------------------------------------
 DIAGSTATS_SET_REGIONS: start reading region-mask file: regMask_lat24.bin
 DIAGSTATS_SET_REGIONS:  reading set k=  1
(PID.TID 0000.0001)  MDS_READ_FIELD: opening global file: regMask_lat24.bin
 DIAGSTATS_SET_REGIONS:          set k=  1 <= done
(PID.TID 0000.0001) DIAGSTATS_SET_REGIONS: define   3 regions:  1  2  3
(PID.TID 0000.0001) ------------------------------------------------------------
(PID.TID 0000.0001) SETDIAG: Allocate  1 Levels for Stats-Diag #    23 ETAN
(PID.TID 0000.0001) SETDIAG: Allocate  1 Levels for Stats-Diag #    24 ETANSQ
(PID.TID 0000.0001) SETDIAG: Allocate  1 Levels for Stats-Diag #    25 DETADT2
(PID.TID 0000.0001) SETDIAG: Allocate 15 Levels for Stats-Diag #    26 THETA
(PID.TID 0000.0001) SETDIAG: Allocate 15 Levels for Stats-Diag #    27 SALT
(PID.TID 0000.0001) SETDIAG: Allocate 15 Levels for Stats-Diag #    79 CONVADJ
(PID.TID 0000.0001) SETDIAG: Allocate  1 Levels for Stats-Diag #    80 oceTAUX
(PID.TID 0000.0001) SETDIAG: Allocate  1 Levels for Stats-Diag #    81 oceTAUY
(PID.TID 0000.0001) SETDIAG: Allocate  1 Levels for Stats-Diag #    89 TRELAX
(PID.TID 0000.0001) SETDIAG: Allocate  1 Levels for Stats-Diag #    90 SRELAX
(PID.TID 0000.0001) SETDIAG: Allocate  1 Levels for Stats-Diag #    91 surForcT
(PID.TID 0000.0001) SETDIAG: Allocate  1 Levels for Stats-Diag #    92 surForcS
(PID.TID 0000.0001) SETDIAG: Allocate  1 Levels for Stats-Diag #    93 TFLUX
(PID.TID 0000.0001) SETDIAG: Allocate  1 Levels for Stats-Diag #    94 SFLUX
(PID.TID 0000.0001) SETDIAG: Allocate  1 Levels for Stats-Diag #    86 oceQnet
(PID.TID 0000.0001) SETDIAG: Allocate  1 Levels for Stats-Diag #    85 oceSflux
(PID.TID 0000.0001) SETDIAG: Allocate  1 Levels for Stats-Diag #    84 oceFWflx
(PID.TID 0000.0001) SETDIAG: Allocate  1 Levels for Stats-Diag #    23 ETAN
(PID.TID 0000.0001) SETDIAG: Allocate 15 Levels for Stats-Diag #    26 THETA
(PID.TID 0000.0001) SETDIAG: Allocate 15 Levels for Stats-Diag #    27 SALT
(PID.TID 0000.0001) SETDIAG: Allocate  1 Levels for Stats-Diag #   211 SI_Fract
(PID.TID 0000.0001) SETDIAG: Allocate  1 Levels for Stats-Diag #   212 SI_Thick
(PID.TID 0000.0001) - NOTE - SETDIAG: Counter Diagnostic #   211 SI_Fract has already been set
(PID.TID 0000.0001) SETDIAG: Allocate  1 Levels for Stats-Diag #   213 SI_SnowH
(PID.TID 0000.0001) - NOTE - SETDIAG: Counter Diagnostic #   211 SI_Fract has already been set
(PID.TID 0000.0001) SETDIAG: Allocate  1 Levels for Stats-Diag #   214 SI_Tsrf
(PID.TID 0000.0001) - NOTE - SETDIAG: Counter Diagnostic #   211 SI_Fract has already been set
(PID.TID 0000.0001) SETDIAG: Allocate  1 Levels for Stats-Diag #   215 SI_Tice1
(PID.TID 0000.0001) - NOTE - SETDIAG: Counter Diagnostic #   211 SI_Fract has already been set
(PID.TID 0000.0001) SETDIAG: Allocate  1 Levels for Stats-Diag #   216 SI_Tice2
(PID.TID 0000.0001) - NOTE - SETDIAG: Counter Diagnostic #   211 SI_Fract has already been set
(PID.TID 0000.0001) SETDIAG: Allocate  1 Levels for Stats-Diag #   217 SI_Qice1
(PID.TID 0000.0001) - NOTE - SETDIAG: Counter Diagnostic #   212 SI_Thick has already been set
(PID.TID 0000.0001) SETDIAG: Allocate  1 Levels for Stats-Diag #   218 SI_Qice2
(PID.TID 0000.0001) - NOTE - SETDIAG: Counter Diagnostic #   212 SI_Thick has already been set
(PID.TID 0000.0001) SETDIAG: Allocate  1 Levels for Stats-Diag #   222 SIsnwPrc
(PID.TID 0000.0001) SETDIAG: Allocate  1 Levels for Count.Diag #   220 SI_FrcFx
(PID.TID 0000.0001) SETDIAG: Allocate  1 Levels for Stats-Diag #   221 SIalbedo
(PID.TID 0000.0001) - NOTE - SETDIAG: Counter Diagnostic #   220 SI_FrcFx has already been set
(PID.TID 0000.0001) SETDIAG: Allocate  1 Levels for Stats-Diag #   219 SIsnwAge
(PID.TID 0000.0001) SETDIAG: Allocate  1 Levels for Stats-Diag #   225 SIflx2oc
(PID.TID 0000.0001) SETDIAG: Allocate  1 Levels for Stats-Diag #   226 SIfrw2oc
(PID.TID 0000.0001) SETDIAG: Allocate  1 Levels for Stats-Diag #   227 SIsaltFx
(PID.TID 0000.0001) SETDIAG: Allocate  1 Levels for Stats-Diag #   223 SIflxAtm
(PID.TID 0000.0001) SETDIAG: Allocate  1 Levels for Stats-Diag #   224 SIfrwAtm
(PID.TID 0000.0001)   space allocated for all stats-diags:     107 levels
(PID.TID 0000.0001) DIAGSTATS_SET_POINTERS: done
(PID.TID 0000.0001) ------------------------------------------------------------
(PID.TID 0000.0001) DIAGSTATS_INI_IO: open file: dynStDiag.0000036000.txt , unit=     9
(PID.TID 0000.0001) DIAGSTATS_INI_IO: open file: surfStDiag.0000036000.txt , unit=    10
(PID.TID 0000.0001) DIAGSTATS_INI_IO: open file: instStDiag.0000036000.txt , unit=    11
(PID.TID 0000.0001) DIAGSTATS_INI_IO: open file: thSIceStDiag.0000036000.txt , unit=    12
(PID.TID 0000.0001) %MON fCori_max                    =   1.4574827780704E-04
(PID.TID 0000.0001) %MON fCori_min                    =  -1.4574827780704E-04
(PID.TID 0000.0001) %MON fCori_mean                   =   3.3881317890172E-21
(PID.TID 0000.0001) %MON fCori_sd                     =   8.4202189509968E-05
(PID.TID 0000.0001) %MON fCoriG_max                   =   1.4584247033981E-04
(PID.TID 0000.0001) %MON fCoriG_min                   =  -1.4584247033981E-04
(PID.TID 0000.0001) %MON fCoriG_mean                  =  -1.6940658945086E-20
(PID.TID 0000.0001) %MON fCoriG_sd                    =   8.4202189509968E-05
(PID.TID 0000.0001) %MON fCoriCos_max                 =   1.4580166994612E-04
(PID.TID 0000.0001) %MON fCoriCos_min                 =   5.2407700865903E-06
(PID.TID 0000.0001) %MON fCoriCos_mean                =   1.1514045869113E-04
(PID.TID 0000.0001) %MON fCoriCos_sd                  =   3.0375849106513E-05
(PID.TID 0000.0001) INI_CG2D: CG2D normalisation factor =  1.9156564154949553E-04
(PID.TID 0000.0001) INI_CG2D: cg2dTolerance = 5.809016360175296E-07 (Area=3.6388673751E+14)
(PID.TID 0000.0001) 
(PID.TID 0000.0001) // =======================================================
(PID.TID 0000.0001) // Model configuration
(PID.TID 0000.0001) // =======================================================
(PID.TID 0000.0001) //
(PID.TID 0000.0001) // "Physical" paramters ( PARM01 in namelist )
(PID.TID 0000.0001) //
(PID.TID 0000.0001) buoyancyRelation = /* Type of relation to get Buoyancy */
(PID.TID 0000.0001)               'OCEANIC'
(PID.TID 0000.0001)     ;
(PID.TID 0000.0001) fluidIsAir   =  /* fluid major constituent is Air */
(PID.TID 0000.0001)                   F
(PID.TID 0000.0001)     ;
(PID.TID 0000.0001) fluidIsWater =  /* fluid major constituent is Water */
(PID.TID 0000.0001)                   T
(PID.TID 0000.0001)     ;
(PID.TID 0000.0001) usingPCoords =  /* use p (or p*) vertical coordinate */
(PID.TID 0000.0001)                   F
(PID.TID 0000.0001)     ;
(PID.TID 0000.0001) usingZCoords =  /* use z (or z*) vertical coordinate */
(PID.TID 0000.0001)                   T
(PID.TID 0000.0001)     ;
(PID.TID 0000.0001) tRef =   /* Reference temperature profile ( oC or K ) */
(PID.TID 0000.0001)    15 @  2.000000000000000E+01              /* K =  1: 15 */
(PID.TID 0000.0001)     ;
(PID.TID 0000.0001) sRef =   /* Reference salinity profile ( psu ) */
(PID.TID 0000.0001)    15 @  3.500000000000000E+01              /* K =  1: 15 */
(PID.TID 0000.0001)     ;
(PID.TID 0000.0001) viscAh  =   /* Lateral eddy viscosity ( m^2/s ) */
(PID.TID 0000.0001)                 3.000000000000000E+05
(PID.TID 0000.0001)     ;
(PID.TID 0000.0001) viscAhMax = /* Maximum lateral eddy viscosity ( m^2/s ) */
(PID.TID 0000.0001)                 1.000000000000000E+21
(PID.TID 0000.0001)     ;
(PID.TID 0000.0001) viscAhGrid = /* Grid dependent lateral eddy viscosity ( non-dim. ) */
(PID.TID 0000.0001)                 0.000000000000000E+00
(PID.TID 0000.0001)     ;
(PID.TID 0000.0001) useFullLeith = /* Use Full Form of Leith Viscosity on/off flag*/
(PID.TID 0000.0001)                   F
(PID.TID 0000.0001)     ;
(PID.TID 0000.0001) useStrainTensionVisc= /* Use StrainTension Form of Viscous Operator flag*/
(PID.TID 0000.0001)                   F
(PID.TID 0000.0001)     ;
(PID.TID 0000.0001) useAreaViscLength = /* Use area for visc length instead of geom. mean*/
(PID.TID 0000.0001)                   F
(PID.TID 0000.0001)     ;
(PID.TID 0000.0001) viscC2leith = /* Leith harmonic visc. factor (on grad(vort),non-dim.) */
(PID.TID 0000.0001)                 0.000000000000000E+00
(PID.TID 0000.0001)     ;
(PID.TID 0000.0001) viscC2leithD = /* Leith harmonic viscosity factor (on grad(div),non-dim.)*/
(PID.TID 0000.0001)                 0.000000000000000E+00
(PID.TID 0000.0001)     ;
(PID.TID 0000.0001) viscC2smag = /* Smagorinsky harmonic viscosity factor (non-dim.) */
(PID.TID 0000.0001)                 0.000000000000000E+00
(PID.TID 0000.0001)     ;
(PID.TID 0000.0001) viscA4  =   /* Lateral biharmonic viscosity ( m^4/s ) */
(PID.TID 0000.0001)                 0.000000000000000E+00
(PID.TID 0000.0001)     ;
(PID.TID 0000.0001) viscA4Max = /* Maximum biharmonic viscosity ( m^2/s ) */
(PID.TID 0000.0001)                 1.000000000000000E+21
(PID.TID 0000.0001)     ;
(PID.TID 0000.0001) viscA4Grid = /* Grid dependent biharmonic viscosity ( non-dim. ) */
(PID.TID 0000.0001)                 0.000000000000000E+00
(PID.TID 0000.0001)     ;
(PID.TID 0000.0001) viscC4leith = /* Leith biharm viscosity factor (on grad(vort), non-dim.)*/
(PID.TID 0000.0001)                 0.000000000000000E+00
(PID.TID 0000.0001)     ;
(PID.TID 0000.0001) viscC4leithD = /* Leith biharm viscosity factor (on grad(div), non-dim.) */
(PID.TID 0000.0001)                 0.000000000000000E+00
(PID.TID 0000.0001)     ;
(PID.TID 0000.0001) viscC4Smag = /* Smagorinsky biharm viscosity factor (non-dim) */
(PID.TID 0000.0001)                 0.000000000000000E+00
(PID.TID 0000.0001)     ;
(PID.TID 0000.0001) no_slip_sides =  /* Viscous BCs: No-slip sides */
(PID.TID 0000.0001)                   T
(PID.TID 0000.0001)     ;
(PID.TID 0000.0001) sideDragFactor = /* side-drag scaling factor (non-dim) */
(PID.TID 0000.0001)                 2.000000000000000E+00
(PID.TID 0000.0001)     ;
(PID.TID 0000.0001) viscArNr = /* vertical profile of vertical viscosity ( m^2/s )*/
(PID.TID 0000.0001)    15 @  1.000000000000000E-03              /* K =  1: 15 */
(PID.TID 0000.0001)     ;
(PID.TID 0000.0001) no_slip_bottom =  /* Viscous BCs: No-slip bottom */
(PID.TID 0000.0001)                   T
(PID.TID 0000.0001)     ;
(PID.TID 0000.0001) bottomDragLinear = /* linear bottom-drag coefficient ( m/s ) */
(PID.TID 0000.0001)                 0.000000000000000E+00
(PID.TID 0000.0001)     ;
(PID.TID 0000.0001) bottomDragQuadratic = /* quadratic bottom-drag coefficient (-) */
(PID.TID 0000.0001)                 0.000000000000000E+00
(PID.TID 0000.0001)     ;
(PID.TID 0000.0001) diffKhT =   /* Laplacian diffusion of heat laterally ( m^2/s ) */
(PID.TID 0000.0001)                 0.000000000000000E+00
(PID.TID 0000.0001)     ;
(PID.TID 0000.0001) diffK4T =   /* Biharmonic diffusion of heat laterally ( m^4/s ) */
(PID.TID 0000.0001)                 0.000000000000000E+00
(PID.TID 0000.0001)     ;
(PID.TID 0000.0001) diffKhS =   /* Laplacian diffusion of salt laterally ( m^2/s ) */
(PID.TID 0000.0001)                 0.000000000000000E+00
(PID.TID 0000.0001)     ;
(PID.TID 0000.0001) diffK4S =   /* Biharmonic diffusion of salt laterally ( m^4/s ) */
(PID.TID 0000.0001)                 0.000000000000000E+00
(PID.TID 0000.0001)     ;
(PID.TID 0000.0001) diffKrNrT = /* vertical profile of vertical diffusion of Temp ( m^2/s )*/
(PID.TID 0000.0001)    15 @  3.000000000000000E-05              /* K =  1: 15 */
(PID.TID 0000.0001)     ;
(PID.TID 0000.0001) diffKrNrS = /* vertical profile of vertical diffusion of Salt ( m^2/s )*/
(PID.TID 0000.0001)    15 @  3.000000000000000E-05              /* K =  1: 15 */
(PID.TID 0000.0001)     ;
(PID.TID 0000.0001) diffKrBL79surf = /* Surface diffusion for Bryan and Lewis 79 ( m^2/s ) */
(PID.TID 0000.0001)                 0.000000000000000E+00
(PID.TID 0000.0001)     ;
(PID.TID 0000.0001) diffKrBL79deep = /* Deep diffusion for Bryan and Lewis 1979 ( m^2/s ) */
(PID.TID 0000.0001)                 0.000000000000000E+00
(PID.TID 0000.0001)     ;
(PID.TID 0000.0001) diffKrBL79scl = /* Depth scale for Bryan and Lewis 1979 ( m ) */
(PID.TID 0000.0001)                 2.000000000000000E+02
(PID.TID 0000.0001)     ;
(PID.TID 0000.0001) diffKrBL79Ho = /* Turning depth for Bryan and Lewis 1979 ( m ) */
(PID.TID 0000.0001)                -2.000000000000000E+03
(PID.TID 0000.0001)     ;
(PID.TID 0000.0001) ivdc_kappa = /* Implicit Vertical Diffusivity for Convection ( m^2/s) */
(PID.TID 0000.0001)                 1.000000000000000E+01
(PID.TID 0000.0001)     ;
(PID.TID 0000.0001) hMixCriteria=  /* Criteria for mixed-layer diagnostic */
(PID.TID 0000.0001)                -8.000000000000000E-01
(PID.TID 0000.0001)     ;
(PID.TID 0000.0001) dRhoSmall =  /* Parameter for mixed-layer diagnostic */
(PID.TID 0000.0001)                 1.000000000000000E-06
(PID.TID 0000.0001)     ;
(PID.TID 0000.0001) hMixSmooth=  /* Smoothing parameter for mixed-layer diagnostic */
(PID.TID 0000.0001)                 0.000000000000000E+00
(PID.TID 0000.0001)     ;
(PID.TID 0000.0001) eosType =  /* Type of Equation of State */
(PID.TID 0000.0001)               'JMD95Z'
(PID.TID 0000.0001)     ;
(PID.TID 0000.0001) tAlpha =   /* Linear EOS thermal expansion coefficient ( 1/oC ) */
(PID.TID 0000.0001)                 1.234567000000000E+05
(PID.TID 0000.0001)     ;
(PID.TID 0000.0001) sBeta =   /* Linear EOS haline contraction coefficient ( 1/psu ) */
(PID.TID 0000.0001)                 1.234567000000000E+05
(PID.TID 0000.0001)     ;
(PID.TID 0000.0001) rhonil =   /* Reference density ( kg/m^3 ) */
(PID.TID 0000.0001)                 1.035000000000000E+03
(PID.TID 0000.0001)     ;
(PID.TID 0000.0001) rhoConst =   /* Reference density ( kg/m^3 ) */
(PID.TID 0000.0001)                 1.035000000000000E+03
(PID.TID 0000.0001)     ;
(PID.TID 0000.0001) rhoFacC = /* normalized Reference density @ cell-Center (-) */
(PID.TID 0000.0001)    15 @  1.000000000000000E+00              /* K =  1: 15 */
(PID.TID 0000.0001)     ;
(PID.TID 0000.0001) rhoFacF = /* normalized Reference density @ W-Interface (-) */
(PID.TID 0000.0001)    16 @  1.000000000000000E+00              /* K =  1: 16 */
(PID.TID 0000.0001)     ;
(PID.TID 0000.0001) rhoConstFresh =   /* Reference density ( kg/m^3 ) */
(PID.TID 0000.0001)                 1.000000000000000E+03
(PID.TID 0000.0001)     ;
(PID.TID 0000.0001) gravity =   /* Gravitational acceleration ( m/s^2 ) */
(PID.TID 0000.0001)                 9.810000000000000E+00
(PID.TID 0000.0001)     ;
(PID.TID 0000.0001) gBaro =   /* Barotropic gravity ( m/s^2 ) */
(PID.TID 0000.0001)                 9.810000000000000E+00
(PID.TID 0000.0001)     ;
(PID.TID 0000.0001) rotationPeriod =   /* Rotation Period ( s ) */
(PID.TID 0000.0001)                 8.616400000000000E+04
(PID.TID 0000.0001)     ;
(PID.TID 0000.0001) omega =   /* Angular velocity ( rad/s ) */
(PID.TID 0000.0001)                 7.292123516990375E-05
(PID.TID 0000.0001)     ;
(PID.TID 0000.0001) f0 =   /* Reference coriolis parameter ( 1/s ) */
(PID.TID 0000.0001)                 1.000000000000000E-04
(PID.TID 0000.0001)     ;
(PID.TID 0000.0001) beta =   /* Beta ( 1/(m.s) ) */
(PID.TID 0000.0001)                 9.999999999999999E-12
(PID.TID 0000.0001)     ;
(PID.TID 0000.0001) fPrime =   /* Second coriolis parameter ( 1/s ) */
(PID.TID 0000.0001)                 0.000000000000000E+00
(PID.TID 0000.0001)     ;
(PID.TID 0000.0001) rigidLid =   /* Rigid lid on/off flag */
(PID.TID 0000.0001)                   F
(PID.TID 0000.0001)     ;
(PID.TID 0000.0001) implicitFreeSurface =   /* Implicit free surface on/off flag */
(PID.TID 0000.0001)                   T
(PID.TID 0000.0001)     ;
(PID.TID 0000.0001) freeSurfFac =   /* Implicit free surface factor */
(PID.TID 0000.0001)                 1.000000000000000E+00
(PID.TID 0000.0001)     ;
(PID.TID 0000.0001) implicSurfPress =  /* Surface Pressure implicit factor (0-1)*/
(PID.TID 0000.0001)                 1.000000000000000E+00
(PID.TID 0000.0001)     ;
(PID.TID 0000.0001) implicDiv2Dflow =  /* Barot. Flow Div. implicit factor (0-1)*/
(PID.TID 0000.0001)                 1.000000000000000E+00
(PID.TID 0000.0001)     ;
(PID.TID 0000.0001) exactConserv =  /* Exact Volume Conservation on/off flag*/
(PID.TID 0000.0001)                   T
(PID.TID 0000.0001)     ;
(PID.TID 0000.0001) linFSConserveTr = /* Tracer correction for Lin Free Surface on/off flag*/
(PID.TID 0000.0001)                   F
(PID.TID 0000.0001)     ;
(PID.TID 0000.0001) uniformLin_PhiSurf = /* use uniform Bo_surf on/off flag*/
(PID.TID 0000.0001)                   T
(PID.TID 0000.0001)     ;
(PID.TID 0000.0001) hFacMin =   /* minimum partial cell factor (hFac) */
(PID.TID 0000.0001)                 1.000000000000000E-01
(PID.TID 0000.0001)     ;
(PID.TID 0000.0001) hFacMinDr = /* minimum partial cell thickness ( m) */
(PID.TID 0000.0001)                 1.000000000000000E-01
(PID.TID 0000.0001)     ;
(PID.TID 0000.0001) nonlinFreeSurf = /* Non-linear Free Surf. options (-1,0,1,2,3)*/
(PID.TID 0000.0001)                       4
(PID.TID 0000.0001)      -1,0= Off ; 1,2,3= On, 2=+rescale gU,gV, 3=+update cg2d solv.
(PID.TID 0000.0001)     ;
(PID.TID 0000.0001) hFacInf =   /* lower threshold for hFac (nonlinFreeSurf only)*/
(PID.TID 0000.0001)                 2.000000000000000E-01
(PID.TID 0000.0001)     ;
(PID.TID 0000.0001) hFacSup =   /* upper threshold for hFac (nonlinFreeSurf only)*/
(PID.TID 0000.0001)                 2.000000000000000E+00
(PID.TID 0000.0001)     ;
(PID.TID 0000.0001) select_rStar = /* r* Vertical coord. options (=0 r coord.; >0 uses r*)*/
(PID.TID 0000.0001)                       2
(PID.TID 0000.0001)     ;
(PID.TID 0000.0001) selectAddFluid = /* option for mass source/sink of fluid (=0: off) */
(PID.TID 0000.0001)                       0
(PID.TID 0000.0001)     ;
(PID.TID 0000.0001) useRealFreshWaterFlux = /* Real Fresh Water Flux on/off flag*/
(PID.TID 0000.0001)                   T
(PID.TID 0000.0001)     ;
(PID.TID 0000.0001) temp_EvPrRn = /* Temp. of Evap/Prec/R (UNSET=use local T)(oC)*/
(PID.TID 0000.0001)                 1.234567000000000E+05
(PID.TID 0000.0001)     ;
(PID.TID 0000.0001) salt_EvPrRn = /* Salin. of Evap/Prec/R (UNSET=use local S)(psu)*/
(PID.TID 0000.0001)                 0.000000000000000E+00
(PID.TID 0000.0001)     ;
(PID.TID 0000.0001) temp_addMass = /* Temp. of addMass array (UNSET=use local T)(oC)*/
(PID.TID 0000.0001)                 1.234567000000000E+05
(PID.TID 0000.0001)     ;
(PID.TID 0000.0001) salt_addMass = /* Salin. of addMass array (UNSET=use local S)(psu)*/
(PID.TID 0000.0001)                 0.000000000000000E+00
(PID.TID 0000.0001)     ;
(PID.TID 0000.0001) use3Dsolver = /* use 3-D pressure solver on/off flag */
(PID.TID 0000.0001)                   F
(PID.TID 0000.0001)     ;
(PID.TID 0000.0001) nonHydrostatic =  /* Non-Hydrostatic on/off flag */
(PID.TID 0000.0001)                   F
(PID.TID 0000.0001)     ;
(PID.TID 0000.0001) nh_Am2 = /* Non-Hydrostatic terms scaling factor */
(PID.TID 0000.0001)                 1.000000000000000E+00
(PID.TID 0000.0001)     ;
(PID.TID 0000.0001) implicitNHPress = /* Non-Hyd Pressure implicit factor (0-1)*/
(PID.TID 0000.0001)                 1.000000000000000E+00
(PID.TID 0000.0001)     ;
(PID.TID 0000.0001) selectNHfreeSurf = /* Non-Hyd (free-)Surface option */
(PID.TID 0000.0001)                       0
(PID.TID 0000.0001)     ;
(PID.TID 0000.0001) quasiHydrostatic = /* Quasi-Hydrostatic on/off flag */
(PID.TID 0000.0001)                   F
(PID.TID 0000.0001)     ;
(PID.TID 0000.0001) calc_wVelocity = /* vertical velocity calculation on/off flag */
(PID.TID 0000.0001)                   T
(PID.TID 0000.0001)     ;
(PID.TID 0000.0001) momStepping =  /* Momentum equation on/off flag */
(PID.TID 0000.0001)                   T
(PID.TID 0000.0001)     ;
(PID.TID 0000.0001) vectorInvariantMomentum= /* Vector-Invariant Momentum on/off */
(PID.TID 0000.0001)                   T
(PID.TID 0000.0001)     ;
(PID.TID 0000.0001) momAdvection =  /* Momentum advection on/off flag */
(PID.TID 0000.0001)                   T
(PID.TID 0000.0001)     ;
(PID.TID 0000.0001) momViscosity =  /* Momentum viscosity on/off flag */
(PID.TID 0000.0001)                   T
(PID.TID 0000.0001)     ;
(PID.TID 0000.0001) momImplVertAdv= /* Momentum implicit vert. advection on/off*/
(PID.TID 0000.0001)                   F
(PID.TID 0000.0001)     ;
(PID.TID 0000.0001) implicitViscosity = /* Implicit viscosity on/off flag */
(PID.TID 0000.0001)                   F
(PID.TID 0000.0001)     ;
(PID.TID 0000.0001) metricTerms =  /* metric-Terms on/off flag */
(PID.TID 0000.0001)                   F
(PID.TID 0000.0001)     ;
(PID.TID 0000.0001) useNHMTerms = /* Non-Hydrostatic Metric-Terms on/off */
(PID.TID 0000.0001)                   F
(PID.TID 0000.0001)     ;
(PID.TID 0000.0001) selectCoriMap = /* Coriolis Map options (0,1,2,3)*/
(PID.TID 0000.0001)                       2
(PID.TID 0000.0001)     0= f-Plane ; 1= Beta-Plane ; 2= Spherical ; 3= read from file
(PID.TID 0000.0001)     ;
(PID.TID 0000.0001) use3dCoriolis = /* 3-D Coriolis on/off flag */
(PID.TID 0000.0001)                   F
(PID.TID 0000.0001)     ;
(PID.TID 0000.0001) useCoriolis =  /* Coriolis on/off flag */
(PID.TID 0000.0001)                   T
(PID.TID 0000.0001)     ;
(PID.TID 0000.0001) useCDscheme =  /* CD scheme on/off flag */
(PID.TID 0000.0001)                   F
(PID.TID 0000.0001)     ;
(PID.TID 0000.0001) useEnergyConservingCoriolis= /* Flx-Form Coriolis scheme flag */
(PID.TID 0000.0001)                   F
(PID.TID 0000.0001)     ;
(PID.TID 0000.0001) useJamartWetPoints= /* Coriolis WetPoints method flag */
(PID.TID 0000.0001)                   F
(PID.TID 0000.0001)     ;
(PID.TID 0000.0001) useJamartMomAdv= /* V.I Non-linear terms Jamart flag */
(PID.TID 0000.0001)                   F
(PID.TID 0000.0001)     ;
(PID.TID 0000.0001) useAbsVorticity= /* V.I Works with f+zeta in Coriolis */
(PID.TID 0000.0001)                   F
(PID.TID 0000.0001)     ;
(PID.TID 0000.0001) selectVortScheme= /* V.I Scheme selector for Vorticity-Term */
(PID.TID 0000.0001)                       1
(PID.TID 0000.0001)    = 0 : enstrophy (Shallow-Water Eq.) conserving scheme by Sadourny, JAS 75
(PID.TID 0000.0001)    = 1 : same as 0 with modified hFac
(PID.TID 0000.0001)    = 2 : energy conserving scheme (used by Sadourny in JAS 75 paper)
(PID.TID 0000.0001)    = 3 : energy (general) and enstrophy (2D, nonDiv.) conserving scheme
(PID.TID 0000.0001)          from Sadourny (Burridge & Haseler, ECMWF Rep.4, 1977)
(PID.TID 0000.0001)     ;
(PID.TID 0000.0001) upwindVorticity= /* V.I Upwind bias vorticity flag */
(PID.TID 0000.0001)                   F
(PID.TID 0000.0001)     ;
(PID.TID 0000.0001) highOrderVorticity= /* V.I High order vort. advect. flag */
(PID.TID 0000.0001)                   F
(PID.TID 0000.0001)     ;
(PID.TID 0000.0001) upwindShear= /* V.I Upwind vertical Shear advection flag */
(PID.TID 0000.0001)                   F
(PID.TID 0000.0001)     ;
(PID.TID 0000.0001) selectKEscheme= /* V.I Kinetic Energy scheme selector */
(PID.TID 0000.0001)                       0
(PID.TID 0000.0001)     ;
(PID.TID 0000.0001) momForcing =  /* Momentum forcing on/off flag */
(PID.TID 0000.0001)                   T
(PID.TID 0000.0001)     ;
(PID.TID 0000.0001) momPressureForcing =  /* Momentum pressure term on/off flag */
(PID.TID 0000.0001)                   T
(PID.TID 0000.0001)     ;
(PID.TID 0000.0001) implicitIntGravWave= /* Implicit Internal Gravity Wave flag */
(PID.TID 0000.0001)                   F
(PID.TID 0000.0001)     ;
(PID.TID 0000.0001) staggerTimeStep =   /* Stagger time stepping on/off flag */
(PID.TID 0000.0001)                   T
(PID.TID 0000.0001)     ;
(PID.TID 0000.0001) multiDimAdvection =   /* enable/disable Multi-Dim Advection */
(PID.TID 0000.0001)                   T
(PID.TID 0000.0001)     ;
(PID.TID 0000.0001) useMultiDimAdvec =   /* Multi-Dim Advection is/is-not used */
(PID.TID 0000.0001)                   F
(PID.TID 0000.0001)     ;
(PID.TID 0000.0001) implicitDiffusion = /* Implicit Diffusion on/off flag */
(PID.TID 0000.0001)                   T
(PID.TID 0000.0001)     ;
(PID.TID 0000.0001) tempStepping =  /* Temperature equation on/off flag */
(PID.TID 0000.0001)                   T
(PID.TID 0000.0001)     ;
(PID.TID 0000.0001) tempAdvection=  /* Temperature advection on/off flag */
(PID.TID 0000.0001)                   T
(PID.TID 0000.0001)     ;
(PID.TID 0000.0001) tempImplVertAdv = /* Temp. implicit vert. advection on/off */
(PID.TID 0000.0001)                   F
(PID.TID 0000.0001)     ;
(PID.TID 0000.0001) tempForcing  =  /* Temperature forcing on/off flag */
(PID.TID 0000.0001)                   T
(PID.TID 0000.0001)     ;
(PID.TID 0000.0001) tempIsActiveTr = /* Temp. is a dynamically Active Tracer */
(PID.TID 0000.0001)                   T
(PID.TID 0000.0001)     ;
(PID.TID 0000.0001) saltStepping =  /* Salinity equation on/off flag */
(PID.TID 0000.0001)                   T
(PID.TID 0000.0001)     ;
(PID.TID 0000.0001) saltAdvection=  /* Salinity advection on/off flag */
(PID.TID 0000.0001)                   T
(PID.TID 0000.0001)     ;
(PID.TID 0000.0001) saltImplVertAdv = /* Sali. implicit vert. advection on/off */
(PID.TID 0000.0001)                   F
(PID.TID 0000.0001)     ;
(PID.TID 0000.0001) saltForcing  =  /* Salinity forcing on/off flag */
(PID.TID 0000.0001)                   T
(PID.TID 0000.0001)     ;
(PID.TID 0000.0001) saltIsActiveTr = /* Salt  is a dynamically Active Tracer */
(PID.TID 0000.0001)                   T
(PID.TID 0000.0001)     ;
(PID.TID 0000.0001)  readBinaryPrec = /* Precision used for reading binary files */
(PID.TID 0000.0001)                      64
(PID.TID 0000.0001)     ;
(PID.TID 0000.0001) writeBinaryPrec = /* Precision used for writing binary files */
(PID.TID 0000.0001)                      32
(PID.TID 0000.0001)     ;
(PID.TID 0000.0001)  globalFiles = /* write "global" (=not per tile) files */
(PID.TID 0000.0001)                   F
(PID.TID 0000.0001)     ;
(PID.TID 0000.0001)  useSingleCpuIO = /* only master MPI process does I/O */
(PID.TID 0000.0001)                   F
(PID.TID 0000.0001)     ;
(PID.TID 0000.0001) /* debLev[*]  : level of debug & auxiliary message printing */
(PID.TID 0000.0001) debLevZero =  0 ; /* level of disabled aux. msg printing */
(PID.TID 0000.0001)    debLevA =  1 ; /* level of minimum  aux. msg printing */
(PID.TID 0000.0001)    debLevB =  2 ; /* level of low aux. print (report read-file opening)*/
(PID.TID 0000.0001)    debLevC =  3 ; /* level of moderate debug prt (most pkgs debug msg) */
(PID.TID 0000.0001)    debLevD =  4 ; /* level of enhanced debug prt (add DEBUG_STATS prt) */
(PID.TID 0000.0001)    debLevE =  5 ; /* level of extensive debug printing */
(PID.TID 0000.0001) debugLevel =  /* select debug printing level */
(PID.TID 0000.0001)                       2
(PID.TID 0000.0001)     ;
(PID.TID 0000.0001) //
(PID.TID 0000.0001) // Elliptic solver(s) paramters ( PARM02 in namelist )
(PID.TID 0000.0001) //
(PID.TID 0000.0001) cg2dMaxIters =   /* Upper limit on 2d con. grad iterations  */
(PID.TID 0000.0001)                     200
(PID.TID 0000.0001)     ;
(PID.TID 0000.0001) cg2dChkResFreq =   /* 2d con. grad convergence test frequency */
(PID.TID 0000.0001)                       1
(PID.TID 0000.0001)     ;
(PID.TID 0000.0001) cg2dTargetResidual =   /* 2d con. grad target residual  */
(PID.TID 0000.0001)                 1.000000000000000E-07
(PID.TID 0000.0001)     ;
(PID.TID 0000.0001) cg2dTargetResWunit =   /* CG2d target residual [W units] */
(PID.TID 0000.0001)                 1.000000000000000E-14
(PID.TID 0000.0001)     ;
(PID.TID 0000.0001) cg2dPreCondFreq =   /* Freq. for updating cg2d preconditioner */
(PID.TID 0000.0001)                       1
(PID.TID 0000.0001)     ;
(PID.TID 0000.0001) useSRCGSolver =  /* use single reduction CG solver(s) */
(PID.TID 0000.0001)                   F
(PID.TID 0000.0001)     ;
(PID.TID 0000.0001) printResidualFreq = /* Freq. for printing CG residual */
(PID.TID 0000.0001)                       0
(PID.TID 0000.0001)     ;
(PID.TID 0000.0001) //
(PID.TID 0000.0001) // Time stepping paramters ( PARM03 in namelist )
(PID.TID 0000.0001) //
(PID.TID 0000.0001) deltaTmom =   /* Momentum equation timestep ( s ) */
(PID.TID 0000.0001)                 1.200000000000000E+03
(PID.TID 0000.0001)     ;
(PID.TID 0000.0001) deltaTfreesurf = /* FreeSurface equation timestep ( s ) */
(PID.TID 0000.0001)                 8.640000000000000E+04
(PID.TID 0000.0001)     ;
(PID.TID 0000.0001) dTtracerLev =  /* Tracer equation timestep ( s ) */
(PID.TID 0000.0001)    15 @  8.640000000000000E+04              /* K =  1: 15 */
(PID.TID 0000.0001)     ;
(PID.TID 0000.0001) deltaTClock  =   /* Model clock timestep ( s ) */
(PID.TID 0000.0001)                 8.640000000000000E+04
(PID.TID 0000.0001)     ;
(PID.TID 0000.0001) cAdjFreq =   /* Convective adjustment interval ( s ) */
(PID.TID 0000.0001)                 0.000000000000000E+00
(PID.TID 0000.0001)     ;
(PID.TID 0000.0001) momForcingOutAB = /* =1: take Momentum Forcing out of Adams-Bash. stepping */
(PID.TID 0000.0001)                       0
(PID.TID 0000.0001)     ;
(PID.TID 0000.0001) tracForcingOutAB = /* =1: take T,S,pTr Forcing out of Adams-Bash. stepping */
(PID.TID 0000.0001)                       1
(PID.TID 0000.0001)     ;
(PID.TID 0000.0001) momDissip_In_AB = /* put Dissipation Tendency in Adams-Bash. stepping */
(PID.TID 0000.0001)                   T
(PID.TID 0000.0001)     ;
(PID.TID 0000.0001) doAB_onGtGs = /* apply AB on Tendencies (rather than on T,S)*/
(PID.TID 0000.0001)                   T
(PID.TID 0000.0001)     ;
(PID.TID 0000.0001) abEps =   /* Adams-Bashforth-2 stabilizing weight */
(PID.TID 0000.0001)                 1.000000000000000E-01
(PID.TID 0000.0001)     ;
(PID.TID 0000.0001) pickupStrictlyMatch= /* stop if pickup do not strictly match */
(PID.TID 0000.0001)                   T
(PID.TID 0000.0001)     ;
(PID.TID 0000.0001) nIter0   =   /* Run starting timestep number */
(PID.TID 0000.0001)                   36000
(PID.TID 0000.0001)     ;
(PID.TID 0000.0001) nTimeSteps = /* Number of timesteps */
(PID.TID 0000.0001)                      20
(PID.TID 0000.0001)     ;
(PID.TID 0000.0001) nEndIter =   /* Run ending timestep number */
(PID.TID 0000.0001)                   36020
(PID.TID 0000.0001)     ;
(PID.TID 0000.0001) baseTime =   /* Model base time ( s ) */
(PID.TID 0000.0001)                 0.000000000000000E+00
(PID.TID 0000.0001)     ;
(PID.TID 0000.0001) startTime =  /* Run start time ( s ) */
(PID.TID 0000.0001)                 3.110400000000000E+09
(PID.TID 0000.0001)     ;
(PID.TID 0000.0001) endTime  =   /* Integration ending time ( s ) */
(PID.TID 0000.0001)                 3.112128000000000E+09
(PID.TID 0000.0001)     ;
(PID.TID 0000.0001) pChkPtFreq = /* Permanent restart/pickup file interval ( s ) */
(PID.TID 0000.0001)                 3.110400000000000E+07
(PID.TID 0000.0001)     ;
(PID.TID 0000.0001) chkPtFreq  = /* Rolling restart/pickup file interval ( s ) */
(PID.TID 0000.0001)                 0.000000000000000E+00
(PID.TID 0000.0001)     ;
(PID.TID 0000.0001) pickup_write_mdsio =   /* Model IO flag. */
(PID.TID 0000.0001)                   T
(PID.TID 0000.0001)     ;
(PID.TID 0000.0001) pickup_read_mdsio =   /* Model IO flag. */
(PID.TID 0000.0001)                   T
(PID.TID 0000.0001)     ;
(PID.TID 0000.0001) pickup_write_mnc =   /* Model IO flag. */
(PID.TID 0000.0001)                   F
(PID.TID 0000.0001)     ;
(PID.TID 0000.0001) pickup_read_mnc =   /* Model IO flag. */
(PID.TID 0000.0001)                   F
(PID.TID 0000.0001)     ;
(PID.TID 0000.0001) pickup_write_immed =   /* Model IO flag. */
(PID.TID 0000.0001)                   F
(PID.TID 0000.0001)     ;
(PID.TID 0000.0001) writePickupAtEnd =   /* Model IO flag. */
(PID.TID 0000.0001)                   T
(PID.TID 0000.0001)     ;
(PID.TID 0000.0001) dumpFreq =   /* Model state write out interval ( s ). */
(PID.TID 0000.0001)                 3.110400000000000E+07
(PID.TID 0000.0001)     ;
(PID.TID 0000.0001) dumpInitAndLast= /* write out Initial & Last iter. model state */
(PID.TID 0000.0001)                   T
(PID.TID 0000.0001)     ;
(PID.TID 0000.0001) snapshot_mdsio =   /* Model IO flag. */
(PID.TID 0000.0001)                   T
(PID.TID 0000.0001)     ;
(PID.TID 0000.0001) snapshot_mnc =   /* Model IO flag. */
(PID.TID 0000.0001)                   F
(PID.TID 0000.0001)     ;
(PID.TID 0000.0001) monitorFreq =   /* Monitor output interval ( s ). */
(PID.TID 0000.0001)                 1.000000000000000E+00
(PID.TID 0000.0001)     ;
(PID.TID 0000.0001) monitorSelect = /* select group of variables to monitor */
(PID.TID 0000.0001)                       3
(PID.TID 0000.0001)     ;
(PID.TID 0000.0001) monitor_stdio =   /* Model IO flag. */
(PID.TID 0000.0001)                   T
(PID.TID 0000.0001)     ;
(PID.TID 0000.0001) monitor_mnc =   /* Model IO flag. */
(PID.TID 0000.0001)                   F
(PID.TID 0000.0001)     ;
(PID.TID 0000.0001) externForcingPeriod =   /* forcing period (s) */
(PID.TID 0000.0001)                 2.592000000000000E+06
(PID.TID 0000.0001)     ;
(PID.TID 0000.0001) externForcingCycle =   /* period of the cyle (s). */
(PID.TID 0000.0001)                 3.110400000000000E+07
(PID.TID 0000.0001)     ;
(PID.TID 0000.0001) tauThetaClimRelax =   /* relaxation time scale (s) */
(PID.TID 0000.0001)                 5.184000000000000E+06
(PID.TID 0000.0001)     ;
(PID.TID 0000.0001) tauSaltClimRelax =   /* relaxation time scale (s) */
(PID.TID 0000.0001)                 1.555200000000000E+07
(PID.TID 0000.0001)     ;
(PID.TID 0000.0001) latBandClimRelax =   /* max. Lat. where relaxation */
(PID.TID 0000.0001)                 5.000000000000000E+01
(PID.TID 0000.0001)     ;
(PID.TID 0000.0001) //
(PID.TID 0000.0001) // Gridding paramters ( PARM04 in namelist )
(PID.TID 0000.0001) //
(PID.TID 0000.0001) usingCartesianGrid = /* Cartesian coordinates flag ( True/False ) */
(PID.TID 0000.0001)                   F
(PID.TID 0000.0001)     ;
(PID.TID 0000.0001) usingCylindricalGrid = /* Cylindrical coordinates flag ( True/False ) */
(PID.TID 0000.0001)                   F
(PID.TID 0000.0001)     ;
(PID.TID 0000.0001) usingSphericalPolarGrid = /* Spherical coordinates flag ( True/False ) */
(PID.TID 0000.0001)                   F
(PID.TID 0000.0001)     ;
(PID.TID 0000.0001) usingCurvilinearGrid = /* Curvilinear coordinates flag ( True/False ) */
(PID.TID 0000.0001)                   T
(PID.TID 0000.0001)     ;
(PID.TID 0000.0001) selectSigmaCoord = /* Hybrid-Sigma Vert. Coordinate option */
(PID.TID 0000.0001)                       0
(PID.TID 0000.0001)     ;
(PID.TID 0000.0001) Ro_SeaLevel = /* r(1) ( units of r ==  m ) */
(PID.TID 0000.0001)                 0.000000000000000E+00
(PID.TID 0000.0001)     ;
(PID.TID 0000.0001) rSigmaBnd = /* r/sigma transition ( units of r ==  m ) */
(PID.TID 0000.0001)                 1.234567000000000E+05
(PID.TID 0000.0001)     ;
(PID.TID 0000.0001) rkSign =   /* index orientation relative to vertical coordinate */
(PID.TID 0000.0001)                -1.000000000000000E+00
(PID.TID 0000.0001)     ;
(PID.TID 0000.0001) gravitySign = /* gravity orientation relative to vertical coordinate */
(PID.TID 0000.0001)                -1.000000000000000E+00
(PID.TID 0000.0001)     ;
(PID.TID 0000.0001) mass2rUnit = /* convert mass per unit area [kg/m2] to r-units [m] */
(PID.TID 0000.0001)                 9.661835748792270E-04
(PID.TID 0000.0001)     ;
(PID.TID 0000.0001) rUnit2mass = /* convert r-units [m] to mass per unit area [kg/m2] */
(PID.TID 0000.0001)                 1.035000000000000E+03
(PID.TID 0000.0001)     ;
(PID.TID 0000.0001) drC =   /* C spacing ( units of r ) */
(PID.TID 0000.0001)                 2.500000000000000E+01,      /* K =  1 */
(PID.TID 0000.0001)                 6.000000000000000E+01,      /* K =  2 */
(PID.TID 0000.0001)                 8.500000000000000E+01,      /* K =  3 */
(PID.TID 0000.0001)                 1.200000000000000E+02,      /* K =  4 */
(PID.TID 0000.0001)                 1.650000000000000E+02,      /* K =  5 */
(PID.TID 0000.0001)                 2.150000000000000E+02,      /* K =  6 */
(PID.TID 0000.0001)                 2.650000000000000E+02,      /* K =  7 */
(PID.TID 0000.0001)                 3.150000000000000E+02,      /* K =  8 */
(PID.TID 0000.0001)                 3.650000000000000E+02,      /* K =  9 */
(PID.TID 0000.0001)                 4.150000000000000E+02,      /* K = 10 */
(PID.TID 0000.0001)                 4.650000000000000E+02,      /* K = 11 */
(PID.TID 0000.0001)                 5.150000000000000E+02,      /* K = 12 */
(PID.TID 0000.0001)                 5.650000000000000E+02,      /* K = 13 */
(PID.TID 0000.0001)                 6.150000000000000E+02,      /* K = 14 */
(PID.TID 0000.0001)                 6.650000000000000E+02       /* K = 15 */
(PID.TID 0000.0001)     ;
(PID.TID 0000.0001) drF =   /* W spacing ( units of r ) */
(PID.TID 0000.0001)                 5.000000000000000E+01,      /* K =  1 */
(PID.TID 0000.0001)                 7.000000000000000E+01,      /* K =  2 */
(PID.TID 0000.0001)                 1.000000000000000E+02,      /* K =  3 */
(PID.TID 0000.0001)                 1.400000000000000E+02,      /* K =  4 */
(PID.TID 0000.0001)                 1.900000000000000E+02,      /* K =  5 */
(PID.TID 0000.0001)                 2.400000000000000E+02,      /* K =  6 */
(PID.TID 0000.0001)                 2.900000000000000E+02,      /* K =  7 */
(PID.TID 0000.0001)                 3.400000000000000E+02,      /* K =  8 */
(PID.TID 0000.0001)                 3.900000000000000E+02,      /* K =  9 */
(PID.TID 0000.0001)                 4.400000000000000E+02,      /* K = 10 */
(PID.TID 0000.0001)                 4.900000000000000E+02,      /* K = 11 */
(PID.TID 0000.0001)                 5.400000000000000E+02,      /* K = 12 */
(PID.TID 0000.0001)                 5.900000000000000E+02,      /* K = 13 */
(PID.TID 0000.0001)                 6.400000000000000E+02,      /* K = 14 */
(PID.TID 0000.0001)                 6.900000000000000E+02       /* K = 15 */
(PID.TID 0000.0001)     ;
(PID.TID 0000.0001) xgOrigin = /* X-axis origin of West  edge (cartesian: m, lat-lon: deg.) */
(PID.TID 0000.0001)                 0.000000000000000E+00
(PID.TID 0000.0001)     ;
(PID.TID 0000.0001) ygOrigin = /* Y-axis origin of South edge (cartesian: m, lat-lon: deg.) */
(PID.TID 0000.0001)                 0.000000000000000E+00
(PID.TID 0000.0001)     ;
(PID.TID 0000.0001) rSphere =  /* Radius ( ignored - cartesian, m - spherical ) */
(PID.TID 0000.0001)                 6.370000000000000E+06
(PID.TID 0000.0001)     ;
(PID.TID 0000.0001) radius_fromHorizGrid = /* sphere Radius of input horiz. grid */
(PID.TID 0000.0001)                 6.370000000000000E+06
(PID.TID 0000.0001)     ;
(PID.TID 0000.0001) deepAtmosphere = /* Deep/Shallow Atmosphere flag (True/False) */
(PID.TID 0000.0001)                   F
(PID.TID 0000.0001)     ;
(PID.TID 0000.0001) xC =  /* xC(:,1,:,1) : P-point X coord ( deg. or m if cartesian) */
(PID.TID 0000.0001)                -4.439521994760536E+01,      /* I =  1 */
(PID.TID 0000.0001)                -4.295641272275883E+01,      /* I =  2 */
(PID.TID 0000.0001)                -4.122055553388957E+01,      /* I =  3 */
(PID.TID 0000.0001)      . . .
(PID.TID 0000.0001)                 1.312205555338896E+02,      /* I = 94 */
(PID.TID 0000.0001)                 1.329564127227588E+02,      /* I = 95 */
(PID.TID 0000.0001)                 1.343952199476053E+02,      /* I = 96 */
(PID.TID 0000.0001)                 4.635509675007168E+01,      /* I = 97 */
(PID.TID 0000.0001)                 4.906731228843647E+01,      /* I = 98 */
(PID.TID 0000.0001)                 5.178550688214704E+01,      /* I = 99 */
(PID.TID 0000.0001)      . . .
(PID.TID 0000.0001)                -1.778001716525716E+02,      /* I =190 */
(PID.TID 0000.0001)                -1.779288225675308E+02,      /* I =191 */
(PID.TID 0000.0001)                -1.780367200854751E+02,      /* I =192 */
(PID.TID 0000.0001)                 1.356047800523947E+02,      /* I =193 */
(PID.TID 0000.0001)                 1.358367907661329E+02,      /* I =194 */
(PID.TID 0000.0001)                 1.359720382181193E+02,      /* I =195 */
(PID.TID 0000.0001)      . . .
(PID.TID 0000.0001)                -1.340279617818807E+02,      /* I =286 */
(PID.TID 0000.0001)                -1.341632092338671E+02,      /* I =287 */
(PID.TID 0000.0001)                -1.343952199476053E+02,      /* I =288 */
(PID.TID 0000.0001)                -8.812739148696656E+01,      /* I =289 */
(PID.TID 0000.0001)                -8.820362659721324E+01,      /* I =290 */
(PID.TID 0000.0001)                -8.826768106944316E+01,      /* I =291 */
(PID.TID 0000.0001)      . . .
(PID.TID 0000.0001)                 8.780017165257156E+01,      /* I =382 */
(PID.TID 0000.0001)                 8.792882256753080E+01,      /* I =383 */
(PID.TID 0000.0001)                 8.803672008547504E+01       /* I =384 */
(PID.TID 0000.0001)     ;
(PID.TID 0000.0001) yC =  /* yC(1,:,1,:) : P-point Y coord ( deg. or m if cartesian) */
(PID.TID 0000.0001)                -3.497677942598243E+01,      /* J =  1 */
(PID.TID 0000.0001)                -3.374005967394886E+01,      /* J =  2 */
(PID.TID 0000.0001)                -3.220655175667454E+01,      /* J =  3 */
(PID.TID 0000.0001)                -3.045756348838641E+01,      /* J =  4 */
(PID.TID 0000.0001)                -2.853728129852918E+01,      /* J =  5 */
(PID.TID 0000.0001)                -2.647426640173173E+01,      /* J =  6 */
(PID.TID 0000.0001)                -2.428936657094636E+01,      /* J =  7 */
(PID.TID 0000.0001)                -2.199915808312262E+01,      /* J =  8 */
(PID.TID 0000.0001)                -1.961768597440146E+01,      /* J =  9 */
(PID.TID 0000.0001)                -1.715743888281371E+01,      /* J = 10 */
(PID.TID 0000.0001)                -1.462993396899330E+01,      /* J = 11 */
(PID.TID 0000.0001)                -1.204608340464756E+01,      /* J = 12 */
(PID.TID 0000.0001)                -9.416429130284818E+00,      /* J = 13 */
(PID.TID 0000.0001)                -6.751293662992216E+00,      /* J = 14 */
(PID.TID 0000.0001)                -4.060875511835959E+00,      /* J = 15 */
(PID.TID 0000.0001)                -1.355307764409121E+00       /* J = 16 */
(PID.TID 0000.0001)     ;
(PID.TID 0000.0001) rcoord = /* P-point R coordinate (  units of r ) */
(PID.TID 0000.0001)                -2.500000000000000E+01,      /* K =  1 */
(PID.TID 0000.0001)                -8.500000000000000E+01,      /* K =  2 */
(PID.TID 0000.0001)                -1.700000000000000E+02,      /* K =  3 */
(PID.TID 0000.0001)                -2.900000000000000E+02,      /* K =  4 */
(PID.TID 0000.0001)                -4.550000000000000E+02,      /* K =  5 */
(PID.TID 0000.0001)                -6.700000000000000E+02,      /* K =  6 */
(PID.TID 0000.0001)                -9.350000000000000E+02,      /* K =  7 */
(PID.TID 0000.0001)                -1.250000000000000E+03,      /* K =  8 */
(PID.TID 0000.0001)                -1.615000000000000E+03,      /* K =  9 */
(PID.TID 0000.0001)                -2.030000000000000E+03,      /* K = 10 */
(PID.TID 0000.0001)                -2.495000000000000E+03,      /* K = 11 */
(PID.TID 0000.0001)                -3.010000000000000E+03,      /* K = 12 */
(PID.TID 0000.0001)                -3.575000000000000E+03,      /* K = 13 */
(PID.TID 0000.0001)                -4.190000000000000E+03,      /* K = 14 */
(PID.TID 0000.0001)                -4.855000000000000E+03       /* K = 15 */
(PID.TID 0000.0001)     ;
(PID.TID 0000.0001) rF =   /* W-Interf. R coordinate (  units of r ) */
(PID.TID 0000.0001)                 0.000000000000000E+00,      /* K =  1 */
(PID.TID 0000.0001)                -5.000000000000000E+01,      /* K =  2 */
(PID.TID 0000.0001)                -1.200000000000000E+02,      /* K =  3 */
(PID.TID 0000.0001)                -2.200000000000000E+02,      /* K =  4 */
(PID.TID 0000.0001)                -3.600000000000000E+02,      /* K =  5 */
(PID.TID 0000.0001)                -5.500000000000000E+02,      /* K =  6 */
(PID.TID 0000.0001)                -7.900000000000000E+02,      /* K =  7 */
(PID.TID 0000.0001)                -1.080000000000000E+03,      /* K =  8 */
(PID.TID 0000.0001)                -1.420000000000000E+03,      /* K =  9 */
(PID.TID 0000.0001)                -1.810000000000000E+03,      /* K = 10 */
(PID.TID 0000.0001)                -2.250000000000000E+03,      /* K = 11 */
(PID.TID 0000.0001)                -2.740000000000000E+03,      /* K = 12 */
(PID.TID 0000.0001)                -3.280000000000000E+03,      /* K = 13 */
(PID.TID 0000.0001)                -3.870000000000000E+03,      /* K = 14 */
(PID.TID 0000.0001)                -4.510000000000000E+03,      /* K = 15 */
(PID.TID 0000.0001)                -5.200000000000000E+03       /* K = 16 */
(PID.TID 0000.0001)     ;
(PID.TID 0000.0001) deepFacC = /* deep-model grid factor @ cell-Center (-) */
(PID.TID 0000.0001)    15 @  1.000000000000000E+00              /* K =  1: 15 */
(PID.TID 0000.0001)     ;
(PID.TID 0000.0001) deepFacF = /* deep-model grid factor @ W-Interface (-) */
(PID.TID 0000.0001)    16 @  1.000000000000000E+00              /* K =  1: 16 */
(PID.TID 0000.0001)     ;
(PID.TID 0000.0001) rVel2wUnit = /* convert units: rVel -> wSpeed (=1 if z-coord)*/
(PID.TID 0000.0001)    16 @  1.000000000000000E+00              /* K =  1: 16 */
(PID.TID 0000.0001)     ;
(PID.TID 0000.0001) wUnit2rVel = /* convert units: wSpeed -> rVel (=1 if z-coord)*/
(PID.TID 0000.0001)    16 @  1.000000000000000E+00              /* K =  1: 16 */
(PID.TID 0000.0001)     ;
(PID.TID 0000.0001) dBdrRef = /* Vertical grad. of reference buoyancy [(m/s/r)^2] */
(PID.TID 0000.0001)    15 @  0.000000000000000E+00              /* K =  1: 15 */
(PID.TID 0000.0001)     ;
(PID.TID 0000.0001) rotateGrid = /* use rotated grid ( True/False ) */
(PID.TID 0000.0001)                   F
(PID.TID 0000.0001)     ;
(PID.TID 0000.0001) phiEuler = /* Euler angle, rotation about original z-coordinate [rad] */
(PID.TID 0000.0001)                 0.000000000000000E+00
(PID.TID 0000.0001)     ;
(PID.TID 0000.0001) thetaEuler = /* Euler angle, rotation about new x-coordinate [rad] */
(PID.TID 0000.0001)                 0.000000000000000E+00
(PID.TID 0000.0001)     ;
(PID.TID 0000.0001) psiEuler = /* Euler angle, rotation about new z-coordinate [rad] */
(PID.TID 0000.0001)                 0.000000000000000E+00
(PID.TID 0000.0001)     ;
(PID.TID 0000.0001) dxF =  /* dxF(:,1,:,1) ( units: m ) */
(PID.TID 0000.0001)                 1.202082051331828E+05,      /* I =  1 */
(PID.TID 0000.0001)                 1.563594089971120E+05,      /* I =  2 */
(PID.TID 0000.0001)                 1.835530058121492E+05,      /* I =  3 */
(PID.TID 0000.0001)      . . .
(PID.TID 0000.0001)                 1.835530058121492E+05,      /* I = 94 */
(PID.TID 0000.0001)                 1.563594089971120E+05,      /* I = 95 */
(PID.TID 0000.0001)                 1.202082051331828E+05,      /* I = 96 */
(PID.TID 0000.0001)                 3.012844832048790E+05,      /* I = 97 */
(PID.TID 0000.0001)                 3.017314519159184E+05,      /* I = 98 */
(PID.TID 0000.0001)                 3.026061571839506E+05,      /* I = 99 */
(PID.TID 0000.0001)      . . .
(PID.TID 0000.0001)                 3.026061571839506E+05,      /* I =190 */
(PID.TID 0000.0001)                 3.017314519159184E+05,      /* I =191 */
(PID.TID 0000.0001)                 3.012844832048790E+05,      /* I =192 */
(PID.TID 0000.0001)                 1.202082051331828E+05,      /* I =193 */
(PID.TID 0000.0001)                 1.563594089971120E+05,      /* I =194 */
(PID.TID 0000.0001)                 1.835530058121492E+05,      /* I =195 */
(PID.TID 0000.0001)      . . .
(PID.TID 0000.0001)                 1.835530058121492E+05,      /* I =286 */
(PID.TID 0000.0001)                 1.563594089971120E+05,      /* I =287 */
(PID.TID 0000.0001)                 1.202082051331828E+05,      /* I =288 */
(PID.TID 0000.0001)                 3.012844832048790E+05,      /* I =289 */
(PID.TID 0000.0001)                 3.017314519159184E+05,      /* I =290 */
(PID.TID 0000.0001)                 3.026061571839506E+05,      /* I =291 */
(PID.TID 0000.0001)      . . .
(PID.TID 0000.0001)                 3.026061571839506E+05,      /* I =382 */
(PID.TID 0000.0001)                 3.017314519159184E+05,      /* I =383 */
(PID.TID 0000.0001)                 3.012844832048790E+05       /* I =384 */
(PID.TID 0000.0001)     ;
(PID.TID 0000.0001) dxF =  /* dxF(1,:,1,:) ( units: m ) */
(PID.TID 0000.0001)                 1.202082051331828E+05,      /* J =  1 */
(PID.TID 0000.0001)                 1.572908084538706E+05,      /* J =  2 */
(PID.TID 0000.0001)                 1.840412227747703E+05,      /* J =  3 */
(PID.TID 0000.0001)                 2.048868197919576E+05,      /* J =  4 */
(PID.TID 0000.0001)                 2.220405216043041E+05,      /* J =  5 */
(PID.TID 0000.0001)                 2.365892017348392E+05,      /* J =  6 */
(PID.TID 0000.0001)                 2.491250781852558E+05,      /* J =  7 */
(PID.TID 0000.0001)                 2.599949918261881E+05,      /* J =  8 */
(PID.TID 0000.0001)                 2.694110134598581E+05,      /* J =  9 */
(PID.TID 0000.0001)                 2.775055554645015E+05,      /* J = 10 */
(PID.TID 0000.0001)                 2.843615645344775E+05,      /* J = 11 */
(PID.TID 0000.0001)                 2.900303768613599E+05,      /* J = 12 */
(PID.TID 0000.0001)                 2.945429307892709E+05,      /* J = 13 */
(PID.TID 0000.0001)                 2.979171143158405E+05,      /* J = 14 */
(PID.TID 0000.0001)                 3.001626787528886E+05,      /* J = 15 */
(PID.TID 0000.0001)                 3.012844832048790E+05       /* J = 16 */
(PID.TID 0000.0001)     ;
(PID.TID 0000.0001) dyF =  /* dyF(:,1,:,1) ( units: m ) */
(PID.TID 0000.0001)                 1.202082051331828E+05,      /* I =  1 */
(PID.TID 0000.0001)                 1.572908084538706E+05,      /* I =  2 */
(PID.TID 0000.0001)                 1.840412227747703E+05,      /* I =  3 */
(PID.TID 0000.0001)      . . .
(PID.TID 0000.0001)                 1.840412227747703E+05,      /* I = 94 */
(PID.TID 0000.0001)                 1.572908084538706E+05,      /* I = 95 */
(PID.TID 0000.0001)                 1.202082051331828E+05,      /* I = 96 */
(PID.TID 0000.0001)                 3.012190981969055E+05,      /* I = 97 */
(PID.TID 0000.0001)                 3.016675528553907E+05,      /* I = 98 */
(PID.TID 0000.0001)                 3.025451404065074E+05,      /* I = 99 */
(PID.TID 0000.0001)      . . .
(PID.TID 0000.0001)                 3.025451404065074E+05,      /* I =190 */
(PID.TID 0000.0001)                 3.016675528553907E+05,      /* I =191 */
(PID.TID 0000.0001)                 3.012190981969055E+05,      /* I =192 */
(PID.TID 0000.0001)                 1.202082051331828E+05,      /* I =193 */
(PID.TID 0000.0001)                 1.572908084538706E+05,      /* I =194 */
(PID.TID 0000.0001)                 1.840412227747703E+05,      /* I =195 */
(PID.TID 0000.0001)      . . .
(PID.TID 0000.0001)                 1.840412227747703E+05,      /* I =286 */
(PID.TID 0000.0001)                 1.572908084538706E+05,      /* I =287 */
(PID.TID 0000.0001)                 1.202082051331828E+05,      /* I =288 */
(PID.TID 0000.0001)                 3.012190981969055E+05,      /* I =289 */
(PID.TID 0000.0001)                 3.016675528553907E+05,      /* I =290 */
(PID.TID 0000.0001)                 3.025451404065074E+05,      /* I =291 */
(PID.TID 0000.0001)      . . .
(PID.TID 0000.0001)                 3.025451404065074E+05,      /* I =382 */
(PID.TID 0000.0001)                 3.016675528553907E+05,      /* I =383 */
(PID.TID 0000.0001)                 3.012190981969055E+05       /* I =384 */
(PID.TID 0000.0001)     ;
(PID.TID 0000.0001) dyF =  /* dyF(1,:,1,:) ( units: m ) */
(PID.TID 0000.0001)                 1.202082051331828E+05,      /* J =  1 */
(PID.TID 0000.0001)                 1.563594089971120E+05,      /* J =  2 */
(PID.TID 0000.0001)                 1.835530058121492E+05,      /* J =  3 */
(PID.TID 0000.0001)                 2.045883481718707E+05,      /* J =  4 */
(PID.TID 0000.0001)                 2.218350349844185E+05,      /* J =  5 */
(PID.TID 0000.0001)                 2.364352994647058E+05,      /* J =  6 */
(PID.TID 0000.0001)                 2.490022710862746E+05,      /* J =  7 */
(PID.TID 0000.0001)                 2.598919724358304E+05,      /* J =  8 */
(PID.TID 0000.0001)                 2.693210245495156E+05,      /* J =  9 */
(PID.TID 0000.0001)                 2.774243179696503E+05,      /* J = 10 */
(PID.TID 0000.0001)                 2.842862532064524E+05,      /* J = 11 */
(PID.TID 0000.0001)                 2.899590699694043E+05,      /* J = 12 */
(PID.TID 0000.0001)                 2.944742915095688E+05,      /* J = 13 */
(PID.TID 0000.0001)                 2.978501920522794E+05,      /* J = 14 */
(PID.TID 0000.0001)                 3.000967749619962E+05,      /* J = 15 */
(PID.TID 0000.0001)                 3.012190981969055E+05       /* J = 16 */
(PID.TID 0000.0001)     ;
(PID.TID 0000.0001) dxG =  /* dxG(:,1,:,1) ( units: m ) */
(PID.TID 0000.0001)                 1.009837800879055E+05,      /* I =  1 */
(PID.TID 0000.0001)                 1.534505834330338E+05,      /* I =  2 */
(PID.TID 0000.0001)                 1.823321598773926E+05,      /* I =  3 */
(PID.TID 0000.0001)      . . .
(PID.TID 0000.0001)                 1.823321598773926E+05,      /* I = 94 */
(PID.TID 0000.0001)                 1.534505834330338E+05,      /* I = 95 */
(PID.TID 0000.0001)                 1.009837800879055E+05,      /* I = 96 */
(PID.TID 0000.0001)                 3.014246674484008E+05,      /* I = 97 */
(PID.TID 0000.0001)                 3.018694497480782E+05,      /* I = 98 */
(PID.TID 0000.0001)                 3.027399364062562E+05,      /* I = 99 */
(PID.TID 0000.0001)      . . .
(PID.TID 0000.0001)                 3.027399364062562E+05,      /* I =190 */
(PID.TID 0000.0001)                 3.018694497480782E+05,      /* I =191 */
(PID.TID 0000.0001)                 3.014246674484008E+05,      /* I =192 */
(PID.TID 0000.0001)                 1.009837800879055E+05,      /* I =193 */
(PID.TID 0000.0001)                 1.534505834330338E+05,      /* I =194 */
(PID.TID 0000.0001)                 1.823321598773926E+05,      /* I =195 */
(PID.TID 0000.0001)      . . .
(PID.TID 0000.0001)                 1.823321598773926E+05,      /* I =286 */
(PID.TID 0000.0001)                 1.534505834330338E+05,      /* I =287 */
(PID.TID 0000.0001)                 1.009837800879055E+05,      /* I =288 */
(PID.TID 0000.0001)                 3.014246674484008E+05,      /* I =289 */
(PID.TID 0000.0001)                 3.018694497480782E+05,      /* I =290 */
(PID.TID 0000.0001)                 3.027399364062562E+05,      /* I =291 */
(PID.TID 0000.0001)      . . .
(PID.TID 0000.0001)                 3.027399364062562E+05,      /* I =382 */
(PID.TID 0000.0001)                 3.018694497480782E+05,      /* I =383 */
(PID.TID 0000.0001)                 3.014246674484008E+05       /* I =384 */
(PID.TID 0000.0001)     ;
(PID.TID 0000.0001) dxG =  /* dxG(1,:,1,:) ( units: m ) */
(PID.TID 0000.0001)                 1.009837800879055E+05,      /* J =  1 */
(PID.TID 0000.0001)                 1.403701524205398E+05,      /* J =  2 */
(PID.TID 0000.0001)                 1.716197227386011E+05,      /* J =  3 */
(PID.TID 0000.0001)                 1.950254041626018E+05,      /* J =  4 */
(PID.TID 0000.0001)                 2.138410773065497E+05,      /* J =  5 */
(PID.TID 0000.0001)                 2.295958105911512E+05,      /* J =  6 */
(PID.TID 0000.0001)                 2.430829951739083E+05,      /* J =  7 */
(PID.TID 0000.0001)                 2.547526806712889E+05,      /* J =  8 */
(PID.TID 0000.0001)                 2.648750305193301E+05,      /* J =  9 */
(PID.TID 0000.0001)                 2.736173771018112E+05,      /* J = 10 */
(PID.TID 0000.0001)                 2.810845823202647E+05,      /* J = 11 */
(PID.TID 0000.0001)                 2.873420591008078E+05,      /* J = 12 */
(PID.TID 0000.0001)                 2.924298293668651E+05,      /* J = 13 */
(PID.TID 0000.0001)                 2.963715635865306E+05,      /* J = 14 */
(PID.TID 0000.0001)                 2.991805843171258E+05,      /* J = 15 */
(PID.TID 0000.0001)                 3.008638765647886E+05       /* J = 16 */
(PID.TID 0000.0001)     ;
(PID.TID 0000.0001) dyG =  /* dyG(:,1,:,1) ( units: m ) */
(PID.TID 0000.0001)                 1.009837800879055E+05,      /* I =  1 */
(PID.TID 0000.0001)                 1.403701524205398E+05,      /* I =  2 */
(PID.TID 0000.0001)                 1.716197227386011E+05,      /* I =  3 */
(PID.TID 0000.0001)      . . .
(PID.TID 0000.0001)                 1.950254041626018E+05,      /* I = 94 */
(PID.TID 0000.0001)                 1.716197227386011E+05,      /* I = 95 */
(PID.TID 0000.0001)                 1.403701524205398E+05,      /* I = 96 */
(PID.TID 0000.0001)                 3.011625828699101E+05,      /* I = 97 */
(PID.TID 0000.0001)                 3.013880313304323E+05,      /* I = 98 */
(PID.TID 0000.0001)                 3.020546438966793E+05,      /* I = 99 */
(PID.TID 0000.0001)      . . .
(PID.TID 0000.0001)                 3.031337933484788E+05,      /* I =190 */
(PID.TID 0000.0001)                 3.020546438966793E+05,      /* I =191 */
(PID.TID 0000.0001)                 3.013880313304323E+05,      /* I =192 */
(PID.TID 0000.0001)                 1.009837800879055E+05,      /* I =193 */
(PID.TID 0000.0001)                 1.403701524205398E+05,      /* I =194 */
(PID.TID 0000.0001)                 1.716197227386011E+05,      /* I =195 */
(PID.TID 0000.0001)      . . .
(PID.TID 0000.0001)                 1.950254041626018E+05,      /* I =286 */
(PID.TID 0000.0001)                 1.716197227386011E+05,      /* I =287 */
(PID.TID 0000.0001)                 1.403701524205398E+05,      /* I =288 */
(PID.TID 0000.0001)                 3.011625828699101E+05,      /* I =289 */
(PID.TID 0000.0001)                 3.013880313304323E+05,      /* I =290 */
(PID.TID 0000.0001)                 3.020546438966793E+05,      /* I =291 */
(PID.TID 0000.0001)      . . .
(PID.TID 0000.0001)                 3.031337933484788E+05,      /* I =382 */
(PID.TID 0000.0001)                 3.020546438966793E+05,      /* I =383 */
(PID.TID 0000.0001)                 3.013880313304323E+05       /* I =384 */
(PID.TID 0000.0001)     ;
(PID.TID 0000.0001) dyG =  /* dyG(1,:,1,:) ( units: m ) */
(PID.TID 0000.0001)                 1.009837800879055E+05,      /* J =  1 */
(PID.TID 0000.0001)                 1.534505834330338E+05,      /* J =  2 */
(PID.TID 0000.0001)                 1.823321598773926E+05,      /* J =  3 */
(PID.TID 0000.0001)                 2.038999045536999E+05,      /* J =  4 */
(PID.TID 0000.0001)                 2.213884732245467E+05,      /* J =  5 */
(PID.TID 0000.0001)                 2.361211699596122E+05,      /* J =  6 */
(PID.TID 0000.0001)                 2.487693460283865E+05,      /* J =  7 */
(PID.TID 0000.0001)                 2.597126963772147E+05,      /* J =  8 */
(PID.TID 0000.0001)                 2.691790288994575E+05,      /* J =  9 */
(PID.TID 0000.0001)                 2.773091043277394E+05,      /* J = 10 */
(PID.TID 0000.0001)                 2.841906470085516E+05,      /* J = 11 */
(PID.TID 0000.0001)                 2.898778860929753E+05,      /* J = 12 */
(PID.TID 0000.0001)                 2.944035815526416E+05,      /* J = 13 */
(PID.TID 0000.0001)                 2.977867909042096E+05,      /* J = 14 */
(PID.TID 0000.0001)                 3.000380090330854E+05,      /* J = 15 */
(PID.TID 0000.0001)                 3.011625828699101E+05       /* J = 16 */
(PID.TID 0000.0001)     ;
(PID.TID 0000.0001) dxC =  /* dxC(:,1,:,1) ( units: m ) */
(PID.TID 0000.0001)                 1.114203141013064E+05,      /* I =  1 */
(PID.TID 0000.0001)                 1.391343389937106E+05,      /* I =  2 */
(PID.TID 0000.0001)                 1.709574999026266E+05,      /* I =  3 */
(PID.TID 0000.0001)      . . .
(PID.TID 0000.0001)                 1.946503699269892E+05,      /* I = 94 */
(PID.TID 0000.0001)                 1.709574999026266E+05,      /* I = 95 */
(PID.TID 0000.0001)                 1.391343389937106E+05,      /* I = 96 */
(PID.TID 0000.0001)                 3.012281885409289E+05,      /* I = 97 */
(PID.TID 0000.0001)                 3.014528555318499E+05,      /* I = 98 */
(PID.TID 0000.0001)                 3.021172674809921E+05,      /* I = 99 */
(PID.TID 0000.0001)      . . .
(PID.TID 0000.0001)                 3.031928954490276E+05,      /* I =190 */
(PID.TID 0000.0001)                 3.021172674809921E+05,      /* I =191 */
(PID.TID 0000.0001)                 3.014528555318499E+05,      /* I =192 */
(PID.TID 0000.0001)                 1.114203141013064E+05,      /* I =193 */
(PID.TID 0000.0001)                 1.391343389937106E+05,      /* I =194 */
(PID.TID 0000.0001)                 1.709574999026266E+05,      /* I =195 */
(PID.TID 0000.0001)      . . .
(PID.TID 0000.0001)                 1.946503699269892E+05,      /* I =286 */
(PID.TID 0000.0001)                 1.709574999026266E+05,      /* I =287 */
(PID.TID 0000.0001)                 1.391343389937106E+05,      /* I =288 */
(PID.TID 0000.0001)                 3.012281885409289E+05,      /* I =289 */
(PID.TID 0000.0001)                 3.014528555318499E+05,      /* I =290 */
(PID.TID 0000.0001)                 3.021172674809921E+05,      /* I =291 */
(PID.TID 0000.0001)      . . .
(PID.TID 0000.0001)                 3.031928954490276E+05,      /* I =382 */
(PID.TID 0000.0001)                 3.021172674809921E+05,      /* I =383 */
(PID.TID 0000.0001)                 3.014528555318499E+05       /* I =384 */
(PID.TID 0000.0001)     ;
(PID.TID 0000.0001) dxC =  /* dxC(1,:,1,:) ( units: m ) */
(PID.TID 0000.0001)                 1.114203141013064E+05,      /* J =  1 */
(PID.TID 0000.0001)                 1.549545757850771E+05,      /* J =  2 */
(PID.TID 0000.0001)                 1.829777599966776E+05,      /* J =  3 */
(PID.TID 0000.0001)                 2.042717761866506E+05,      /* J =  4 */
(PID.TID 0000.0001)                 2.216367828252819E+05,      /* J =  5 */
(PID.TID 0000.0001)                 2.363029564123586E+05,      /* J =  6 */
(PID.TID 0000.0001)                 2.489113743322025E+05,      /* J =  7 */
(PID.TID 0000.0001)                 2.598293319150326E+05,      /* J =  8 */
(PID.TID 0000.0001)                 2.692787333338535E+05,      /* J =  9 */
(PID.TID 0000.0001)                 2.773972106720365E+05,      /* J = 10 */
(PID.TID 0000.0001)                 2.842706922224557E+05,      /* J = 11 */
(PID.TID 0000.0001)                 2.899523122489403E+05,      /* J = 12 */
(PID.TID 0000.0001)                 2.944741346384699E+05,      /* J = 13 */
(PID.TID 0000.0001)                 2.978547649292580E+05,      /* J = 14 */
(PID.TID 0000.0001)                 3.001044073506459E+05,      /* J = 15 */
(PID.TID 0000.0001)                 3.012281885409289E+05       /* J = 16 */
(PID.TID 0000.0001)     ;
(PID.TID 0000.0001) dyC =  /* dyC(:,1,:,1) ( units: m ) */
(PID.TID 0000.0001)                 1.114203141013064E+05,      /* I =  1 */
(PID.TID 0000.0001)                 1.549545757850771E+05,      /* I =  2 */
(PID.TID 0000.0001)                 1.829777599966776E+05,      /* I =  3 */
(PID.TID 0000.0001)      . . .
(PID.TID 0000.0001)                 1.829777599966776E+05,      /* I = 94 */
(PID.TID 0000.0001)                 1.549545757850771E+05,      /* I = 95 */
(PID.TID 0000.0001)                 1.114203141013064E+05,      /* I = 96 */
(PID.TID 0000.0001)                 3.013593857228136E+05,      /* I = 97 */
(PID.TID 0000.0001)                 3.018056440786431E+05,      /* I = 98 */
(PID.TID 0000.0001)                 3.026789946729719E+05,      /* I = 99 */
(PID.TID 0000.0001)      . . .
(PID.TID 0000.0001)                 3.026789946729719E+05,      /* I =190 */
(PID.TID 0000.0001)                 3.018056440786431E+05,      /* I =191 */
(PID.TID 0000.0001)                 3.013593857228136E+05,      /* I =192 */
(PID.TID 0000.0001)                 1.114203141013064E+05,      /* I =193 */
(PID.TID 0000.0001)                 1.549545757850771E+05,      /* I =194 */
(PID.TID 0000.0001)                 1.829777599966776E+05,      /* I =195 */
(PID.TID 0000.0001)      . . .
(PID.TID 0000.0001)                 1.829777599966776E+05,      /* I =286 */
(PID.TID 0000.0001)                 1.549545757850771E+05,      /* I =287 */
(PID.TID 0000.0001)                 1.114203141013064E+05,      /* I =288 */
(PID.TID 0000.0001)                 3.013593857228136E+05,      /* I =289 */
(PID.TID 0000.0001)                 3.018056440786431E+05,      /* I =290 */
(PID.TID 0000.0001)                 3.026789946729719E+05,      /* I =291 */
(PID.TID 0000.0001)      . . .
(PID.TID 0000.0001)                 3.026789946729719E+05,      /* I =382 */
(PID.TID 0000.0001)                 3.018056440786431E+05,      /* I =383 */
(PID.TID 0000.0001)                 3.013593857228136E+05       /* I =384 */
(PID.TID 0000.0001)     ;
(PID.TID 0000.0001) dyC =  /* dyC(1,:,1,:) ( units: m ) */
(PID.TID 0000.0001)                 1.114203141013064E+05,      /* J =  1 */
(PID.TID 0000.0001)                 1.391343389937106E+05,      /* J =  2 */
(PID.TID 0000.0001)                 1.709574999026266E+05,      /* J =  3 */
(PID.TID 0000.0001)                 1.946503699269892E+05,      /* J =  4 */
(PID.TID 0000.0001)                 2.135964483342134E+05,      /* J =  5 */
(PID.TID 0000.0001)                 2.294195678257306E+05,      /* J =  6 */
(PID.TID 0000.0001)                 2.429464709770498E+05,      /* J =  7 */
(PID.TID 0000.0001)                 2.546408290696998E+05,      /* J =  8 */
(PID.TID 0000.0001)                 2.647791839299727E+05,      /* J =  9 */
(PID.TID 0000.0001)                 2.735321911346108E+05,      /* J = 10 */
(PID.TID 0000.0001)                 2.810065951609633E+05,      /* J = 11 */
(PID.TID 0000.0001)                 2.872689479506990E+05,      /* J = 12 */
(PID.TID 0000.0001)                 2.923599955312932E+05,      /* J = 13 */
(PID.TID 0000.0001)                 2.963038832565530E+05,      /* J = 14 */
(PID.TID 0000.0001)                 2.991142470004740E+05,      /* J = 15 */
(PID.TID 0000.0001)                 3.007982711627968E+05       /* J = 16 */
(PID.TID 0000.0001)     ;
(PID.TID 0000.0001) dxV =  /* dxV(:,1,:,1) ( units: m ) */
(PID.TID 0000.0001)                 8.015229982413632E+04,      /* I =  1 */
(PID.TID 0000.0001)                 1.333130744933864E+05,      /* I =  2 */
(PID.TID 0000.0001)                 1.691744868129062E+05,      /* I =  3 */
(PID.TID 0000.0001)      . . .
(PID.TID 0000.0001)                 1.937548202849060E+05,      /* I = 94 */
(PID.TID 0000.0001)                 1.691744868129062E+05,      /* I = 95 */
(PID.TID 0000.0001)                 1.333130744933864E+05,      /* I = 96 */
(PID.TID 0000.0001)                 3.013686170436881E+05,      /* I = 97 */
(PID.TID 0000.0001)                 3.015922136961168E+05,      /* I = 98 */
(PID.TID 0000.0001)                 3.022533948177109E+05,      /* I = 99 */
(PID.TID 0000.0001)      . . .
(PID.TID 0000.0001)                 3.033238888442880E+05,      /* I =190 */
(PID.TID 0000.0001)                 3.022533948177109E+05,      /* I =191 */
(PID.TID 0000.0001)                 3.015922136961168E+05,      /* I =192 */
(PID.TID 0000.0001)                 8.015229982413632E+04,      /* I =193 */
(PID.TID 0000.0001)                 1.333130744933864E+05,      /* I =194 */
(PID.TID 0000.0001)                 1.691744868129062E+05,      /* I =195 */
(PID.TID 0000.0001)      . . .
(PID.TID 0000.0001)                 1.937548202849060E+05,      /* I =286 */
(PID.TID 0000.0001)                 1.691744868129062E+05,      /* I =287 */
(PID.TID 0000.0001)                 1.333130744933864E+05,      /* I =288 */
(PID.TID 0000.0001)                 3.013686170436881E+05,      /* I =289 */
(PID.TID 0000.0001)                 3.015922136961168E+05,      /* I =290 */
(PID.TID 0000.0001)                 3.022533948177109E+05,      /* I =291 */
(PID.TID 0000.0001)      . . .
(PID.TID 0000.0001)                 3.033238888442880E+05,      /* I =382 */
(PID.TID 0000.0001)                 3.022533948177109E+05,      /* I =383 */
(PID.TID 0000.0001)                 3.015922136961168E+05       /* I =384 */
(PID.TID 0000.0001)     ;
(PID.TID 0000.0001) dxV =  /* dxV(1,:,1,:) ( units: m ) */
(PID.TID 0000.0001)                 8.015229982413632E+04,      /* J =  1 */
(PID.TID 0000.0001)                 1.362652340208229E+05,      /* J =  2 */
(PID.TID 0000.0001)                 1.701080315742101E+05,      /* J =  3 */
(PID.TID 0000.0001)                 1.942331448101592E+05,      /* J =  4 */
(PID.TID 0000.0001)                 2.133486626971531E+05,      /* J =  5 */
(PID.TID 0000.0001)                 2.292584591272880E+05,      /* J =  6 */
(PID.TID 0000.0001)                 2.428369969078989E+05,      /* J =  7 */
(PID.TID 0000.0001)                 2.545652950875683E+05,      /* J =  8 */
(PID.TID 0000.0001)                 2.647274964828301E+05,      /* J =  9 */
(PID.TID 0000.0001)                 2.734980225206389E+05,      /* J = 10 */
(PID.TID 0000.0001)                 2.809856491525217E+05,      /* J = 11 */
(PID.TID 0000.0001)                 2.872580915202295E+05,      /* J = 12 */
(PID.TID 0000.0001)                 2.923567890694162E+05,      /* J = 13 */
(PID.TID 0000.0001)                 2.963063101754721E+05,      /* J = 14 */
(PID.TID 0000.0001)                 2.991205495886625E+05,      /* J = 15 */
(PID.TID 0000.0001)                 3.008068453676764E+05       /* J = 16 */
(PID.TID 0000.0001)     ;
(PID.TID 0000.0001) dyU =  /* dyU(:,1,:,1) ( units: m ) */
(PID.TID 0000.0001)                 8.015229982413632E+04,      /* I =  1 */
(PID.TID 0000.0001)                 1.362652340208229E+05,      /* I =  2 */
(PID.TID 0000.0001)                 1.701080315742101E+05,      /* I =  3 */
(PID.TID 0000.0001)      . . .
(PID.TID 0000.0001)                 1.942331448101592E+05,      /* I = 94 */
(PID.TID 0000.0001)                 1.701080315742101E+05,      /* I = 95 */
(PID.TID 0000.0001)                 1.362652340208229E+05,      /* I = 96 */
(PID.TID 0000.0001)                 3.013031486919771E+05,      /* I = 97 */
(PID.TID 0000.0001)                 3.015274890091515E+05,      /* I = 98 */
(PID.TID 0000.0001)                 3.021908563699420E+05,      /* I = 99 */
(PID.TID 0000.0001)      . . .
(PID.TID 0000.0001)                 3.032648502024415E+05,      /* I =190 */
(PID.TID 0000.0001)                 3.021908563699420E+05,      /* I =191 */
(PID.TID 0000.0001)                 3.015274890091515E+05,      /* I =192 */
(PID.TID 0000.0001)                 8.015229982413632E+04,      /* I =193 */
(PID.TID 0000.0001)                 1.362652340208229E+05,      /* I =194 */
(PID.TID 0000.0001)                 1.701080315742101E+05,      /* I =195 */
(PID.TID 0000.0001)      . . .
(PID.TID 0000.0001)                 1.942331448101592E+05,      /* I =286 */
(PID.TID 0000.0001)                 1.701080315742101E+05,      /* I =287 */
(PID.TID 0000.0001)                 1.362652340208229E+05,      /* I =288 */
(PID.TID 0000.0001)                 3.013031486919771E+05,      /* I =289 */
(PID.TID 0000.0001)                 3.015274890091515E+05,      /* I =290 */
(PID.TID 0000.0001)                 3.021908563699420E+05,      /* I =291 */
(PID.TID 0000.0001)      . . .
(PID.TID 0000.0001)                 3.032648502024415E+05,      /* I =382 */
(PID.TID 0000.0001)                 3.021908563699420E+05,      /* I =383 */
(PID.TID 0000.0001)                 3.015274890091515E+05       /* I =384 */
(PID.TID 0000.0001)     ;
(PID.TID 0000.0001) dyU =  /* dyU(1,:,1,:) ( units: m ) */
(PID.TID 0000.0001)                 8.015229982413632E+04,      /* J =  1 */
(PID.TID 0000.0001)                 1.333130744933864E+05,      /* J =  2 */
(PID.TID 0000.0001)                 1.691744868129062E+05,      /* J =  3 */
(PID.TID 0000.0001)                 1.937548202849060E+05,      /* J =  4 */
(PID.TID 0000.0001)                 2.130490056267208E+05,      /* J =  5 */
(PID.TID 0000.0001)                 2.290479919481738E+05,      /* J =  6 */
(PID.TID 0000.0001)                 2.426774358027003E+05,      /* J =  7 */
(PID.TID 0000.0001)                 2.544372984215561E+05,      /* J =  8 */
(PID.TID 0000.0001)                 2.646201463834826E+05,      /* J =  9 */
(PID.TID 0000.0001)                 2.734046499619031E+05,      /* J = 10 */
(PID.TID 0000.0001)                 2.809019351693761E+05,      /* J = 11 */
(PID.TID 0000.0001)                 2.871811105274442E+05,      /* J = 12 */
(PID.TID 0000.0001)                 2.922844849381675E+05,      /* J = 13 */
(PID.TID 0000.0001)                 2.962371870847826E+05,      /* J = 14 */
(PID.TID 0000.0001)                 2.990534755671296E+05,      /* J = 15 */
(PID.TID 0000.0001)                 3.007409169495504E+05       /* J = 16 */
(PID.TID 0000.0001)     ;
(PID.TID 0000.0001) rA  =  /* rA (:,1,:,1) ( units: m^2 ) */
(PID.TID 0000.0001)                 1.401900702255611E+10,      /* I =  1 */
(PID.TID 0000.0001)                 2.459906945574446E+10,      /* I =  2 */
(PID.TID 0000.0001)                 3.378518544307869E+10,      /* I =  3 */
(PID.TID 0000.0001)      . . .
(PID.TID 0000.0001)                 3.378518544304265E+10,      /* I = 94 */
(PID.TID 0000.0001)                 2.459906945574446E+10,      /* I = 95 */
(PID.TID 0000.0001)                 1.401900702259215E+10,      /* I = 96 */
(PID.TID 0000.0001)                 9.076111290422060E+10,      /* I = 97 */
(PID.TID 0000.0001)                 9.103111035233499E+10,      /* I = 98 */
(PID.TID 0000.0001)                 9.156064070993231E+10,      /* I = 99 */
(PID.TID 0000.0001)      . . .
(PID.TID 0000.0001)                 9.156064070993231E+10,      /* I =190 */
(PID.TID 0000.0001)                 9.103111035233499E+10,      /* I =191 */
(PID.TID 0000.0001)                 9.076111290418457E+10,      /* I =192 */
(PID.TID 0000.0001)                 1.401900702255611E+10,      /* I =193 */
(PID.TID 0000.0001)                 2.459906945574446E+10,      /* I =194 */
(PID.TID 0000.0001)                 3.378518544307869E+10,      /* I =195 */
(PID.TID 0000.0001)      . . .
(PID.TID 0000.0001)                 3.378518544304265E+10,      /* I =286 */
(PID.TID 0000.0001)                 2.459906945574446E+10,      /* I =287 */
(PID.TID 0000.0001)                 1.401900702259215E+10,      /* I =288 */
(PID.TID 0000.0001)                 9.076111290422060E+10,      /* I =289 */
(PID.TID 0000.0001)                 9.103111035233499E+10,      /* I =290 */
(PID.TID 0000.0001)                 9.156064070993231E+10,      /* I =291 */
(PID.TID 0000.0001)      . . .
(PID.TID 0000.0001)                 9.156064070993231E+10,      /* I =382 */
(PID.TID 0000.0001)                 9.103111035233499E+10,      /* I =383 */
(PID.TID 0000.0001)                 9.076111290418457E+10       /* I =384 */
(PID.TID 0000.0001)     ;
(PID.TID 0000.0001) rA  =  /* rA (1,:,1,:) ( units: m^2 ) */
(PID.TID 0000.0001)                 1.401900702255611E+10,      /* J =  1 */
(PID.TID 0000.0001)                 2.459906945574446E+10,      /* J =  2 */
(PID.TID 0000.0001)                 3.378518544307869E+10,      /* J =  3 */
(PID.TID 0000.0001)                 4.192037169898667E+10,      /* J =  4 */
(PID.TID 0000.0001)                 4.925938996118163E+10,      /* J =  5 */
(PID.TID 0000.0001)                 5.594154126607553E+10,      /* J =  6 */
(PID.TID 0000.0001)                 6.203683527776127E+10,      /* J =  7 */
(PID.TID 0000.0001)                 6.757541173817516E+10,      /* J =  8 */
(PID.TID 0000.0001)                 7.256353271748119E+10,      /* J =  9 */
(PID.TID 0000.0001)                 7.699293007098555E+10,      /* J = 10 */
(PID.TID 0000.0001)                 8.084683449728902E+10,      /* J = 11 */
(PID.TID 0000.0001)                 8.410423102799828E+10,      /* J = 12 */
(PID.TID 0000.0001)                 8.674306976737517E+10,      /* J = 13 */
(PID.TID 0000.0001)                 8.874277443041928E+10,      /* J = 14 */
(PID.TID 0000.0001)                 9.008620045350865E+10,      /* J = 15 */
(PID.TID 0000.0001)                 9.076111290418457E+10       /* J = 16 */
(PID.TID 0000.0001)     ;
(PID.TID 0000.0001) rAw =  /* rAw(:,1,:,1) ( units: m^2 ) */
(PID.TID 0000.0001)                 1.216690346714270E+10,      /* I =  1 */
(PID.TID 0000.0001)                 1.974052138506315E+10,      /* I =  2 */
(PID.TID 0000.0001)                 2.943712825252015E+10,      /* I =  3 */
(PID.TID 0000.0001)      . . .
(PID.TID 0000.0001)                 3.801790263325260E+10,      /* I = 94 */
(PID.TID 0000.0001)                 2.943712825251114E+10,      /* I = 95 */
(PID.TID 0000.0001)                 1.974052138509018E+10,      /* I = 96 */
(PID.TID 0000.0001)                 9.071447638299399E+10,      /* I = 97 */
(PID.TID 0000.0001)                 9.085012105610597E+10,      /* I = 98 */
(PID.TID 0000.0001)                 9.125179254955583E+10,      /* I = 99 */
(PID.TID 0000.0001)      . . .
(PID.TID 0000.0001)                 9.190392048045309E+10,      /* I =190 */
(PID.TID 0000.0001)                 9.125179254954683E+10,      /* I =191 */
(PID.TID 0000.0001)                 9.085012105606993E+10,      /* I =192 */
(PID.TID 0000.0001)                 1.216690346714270E+10,      /* I =193 */
(PID.TID 0000.0001)                 1.974052138506315E+10,      /* I =194 */
(PID.TID 0000.0001)                 2.943712825252015E+10,      /* I =195 */
(PID.TID 0000.0001)      . . .
(PID.TID 0000.0001)                 3.801790263325260E+10,      /* I =286 */
(PID.TID 0000.0001)                 2.943712825251114E+10,      /* I =287 */
(PID.TID 0000.0001)                 1.974052138509018E+10,      /* I =288 */
(PID.TID 0000.0001)                 9.071447638299399E+10,      /* I =289 */
(PID.TID 0000.0001)                 9.085012105610597E+10,      /* I =290 */
(PID.TID 0000.0001)                 9.125179254955583E+10,      /* I =291 */
(PID.TID 0000.0001)      . . .
(PID.TID 0000.0001)                 9.190392048045309E+10,      /* I =382 */
(PID.TID 0000.0001)                 9.125179254954683E+10,      /* I =383 */
(PID.TID 0000.0001)                 9.085012105606993E+10       /* I =384 */
(PID.TID 0000.0001)     ;
(PID.TID 0000.0001) rAw =  /* rAw(1,:,1,:) ( units: m^2 ) */
(PID.TID 0000.0001)                 1.216690346714270E+10,      /* J =  1 */
(PID.TID 0000.0001)                 2.390126200743558E+10,      /* J =  2 */
(PID.TID 0000.0001)                 3.341968103208270E+10,      /* J =  3 */
(PID.TID 0000.0001)                 4.168532893152940E+10,      /* J =  4 */
(PID.TID 0000.0001)                 4.909074590409593E+10,      /* J =  5 */
(PID.TID 0000.0001)                 5.581203765722643E+10,      /* J =  6 */
(PID.TID 0000.0001)                 6.193257577506788E+10,      /* J =  7 */
(PID.TID 0000.0001)                 6.748840226738273E+10,      /* J =  8 */
(PID.TID 0000.0001)                 7.248875782324815E+10,      /* J =  9 */
(PID.TID 0000.0001)                 7.692702995909871E+10,      /* J = 10 */
(PID.TID 0000.0001)                 8.078743937057304E+10,      /* J = 11 */
(PID.TID 0000.0001)                 8.404959656062837E+10,      /* J = 12 */
(PID.TID 0000.0001)                 8.669186205742538E+10,      /* J = 13 */
(PID.TID 0000.0001)                 8.869393350723613E+10,      /* J = 14 */
(PID.TID 0000.0001)                 9.003884657168852E+10,      /* J = 15 */
(PID.TID 0000.0001)                 9.071447638299399E+10       /* J = 16 */
(PID.TID 0000.0001)     ;
(PID.TID 0000.0001) rAs =  /* rAs(:,1,:,1) ( units: m^2 ) */
(PID.TID 0000.0001)                 1.216690346714270E+10,      /* I =  1 */
(PID.TID 0000.0001)                 2.390126200743558E+10,      /* I =  2 */
(PID.TID 0000.0001)                 3.341968103208270E+10,      /* I =  3 */
(PID.TID 0000.0001)      . . .
(PID.TID 0000.0001)                 3.341968103208270E+10,      /* I = 94 */
(PID.TID 0000.0001)                 2.390126200743558E+10,      /* I = 95 */
(PID.TID 0000.0001)                 1.216690346714270E+10,      /* I = 96 */
(PID.TID 0000.0001)                 9.083293515008307E+10,      /* I = 97 */
(PID.TID 0000.0001)                 9.110170898494536E+10,      /* I = 98 */
(PID.TID 0000.0001)                 9.162886297688426E+10,      /* I = 99 */
(PID.TID 0000.0001)      . . .
(PID.TID 0000.0001)                 9.162886297688426E+10,      /* I =190 */
(PID.TID 0000.0001)                 9.110170898494536E+10,      /* I =191 */
(PID.TID 0000.0001)                 9.083293515008307E+10,      /* I =192 */
(PID.TID 0000.0001)                 1.216690346714270E+10,      /* I =193 */
(PID.TID 0000.0001)                 2.390126200743558E+10,      /* I =194 */
(PID.TID 0000.0001)                 3.341968103208270E+10,      /* I =195 */
(PID.TID 0000.0001)      . . .
(PID.TID 0000.0001)                 3.341968103208270E+10,      /* I =286 */
(PID.TID 0000.0001)                 2.390126200743558E+10,      /* I =287 */
(PID.TID 0000.0001)                 1.216690346714270E+10,      /* I =288 */
(PID.TID 0000.0001)                 9.083293515008307E+10,      /* I =289 */
(PID.TID 0000.0001)                 9.110170898494536E+10,      /* I =290 */
(PID.TID 0000.0001)                 9.162886297688426E+10,      /* I =291 */
(PID.TID 0000.0001)      . . .
(PID.TID 0000.0001)                 9.162886297688426E+10,      /* I =382 */
(PID.TID 0000.0001)                 9.110170898494536E+10,      /* I =383 */
(PID.TID 0000.0001)                 9.083293515008307E+10       /* I =384 */
(PID.TID 0000.0001)     ;
(PID.TID 0000.0001) rAs =  /* rAs(1,:,1,:) ( units: m^2 ) */
(PID.TID 0000.0001)                 1.216690346714270E+10,      /* J =  1 */
(PID.TID 0000.0001)                 1.974052138506315E+10,      /* J =  2 */
(PID.TID 0000.0001)                 2.943712825252015E+10,      /* J =  3 */
(PID.TID 0000.0001)                 3.801790263324359E+10,      /* J =  4 */
(PID.TID 0000.0001)                 4.571243814189866E+10,      /* J =  5 */
(PID.TID 0000.0001)                 5.269930713599979E+10,      /* J =  6 */
(PID.TID 0000.0001)                 5.907428494299063E+10,      /* J =  7 */
(PID.TID 0000.0001)                 6.488320895111514E+10,      /* J =  8 */
(PID.TID 0000.0001)                 7.014205907741882E+10,      /* J =  9 */
(PID.TID 0000.0001)                 7.484854821847499E+10,      /* J = 10 */
(PID.TID 0000.0001)                 7.898934631431560E+10,      /* J = 11 */
(PID.TID 0000.0001)                 8.254500894894537E+10,      /* J = 12 */
(PID.TID 0000.0001)                 8.549360686473492E+10,      /* J = 13 */
(PID.TID 0000.0001)                 8.781353403175085E+10,      /* J = 14 */
(PID.TID 0000.0001)                 8.948571540392021E+10,      /* J = 15 */
(PID.TID 0000.0001)                 9.049530583086168E+10       /* J = 16 */
(PID.TID 0000.0001)     ;
(PID.TID 0000.0001) globalArea = /* Integrated horizontal Area (m^2) */
(PID.TID 0000.0001)                 3.638867375081599E+14
(PID.TID 0000.0001)     ;
(PID.TID 0000.0001) // =======================================================
(PID.TID 0000.0001) // End of Model config. summary
(PID.TID 0000.0001) // =======================================================
(PID.TID 0000.0001) 
(PID.TID 0000.0001) == Packages configuration : Check & print summary ==
(PID.TID 0000.0001) 
(PID.TID 0000.0001) GMREDI_CHECK: #define GMREDI
(PID.TID 0000.0001) GM_AdvForm =     /* if FALSE => use SkewFlux Form */
(PID.TID 0000.0001)                   F
(PID.TID 0000.0001)     ;
(PID.TID 0000.0001) GM_InMomAsStress = /* if TRUE => apply as Eddy Stress */
(PID.TID 0000.0001)                   F
(PID.TID 0000.0001)     ;
(PID.TID 0000.0001) GM_AdvSeparate = /* Calc Bolus & Euler Adv. separately */
(PID.TID 0000.0001)                   F
(PID.TID 0000.0001)     ;
(PID.TID 0000.0001) GM_ExtraDiag =   /* Tensor Extra Diag (line 1&2) non 0 */
(PID.TID 0000.0001)                   F
(PID.TID 0000.0001)     ;
(PID.TID 0000.0001) GM_isopycK =    /* Background Isopyc. Diffusivity [m^2/s] */
(PID.TID 0000.0001)                 8.000000000000000E+02
(PID.TID 0000.0001)     ;
(PID.TID 0000.0001) GM_skewflx*K =  /* Background GM_SkewFlx Diffusivity [m^2/s] */
(PID.TID 0000.0001)                 8.000000000000000E+02
(PID.TID 0000.0001)     ;
(PID.TID 0000.0001) GM_advec*K =    /* Backg. GM-Advec(=Bolus) Diffusivity [m^2/s]*/
(PID.TID 0000.0001)                 0.000000000000000E+00
(PID.TID 0000.0001)     ;
(PID.TID 0000.0001) GM_Kmin_horiz = /* Minimum Horizontal Diffusivity [m^2/s] */
(PID.TID 0000.0001)                 5.000000000000000E+01
(PID.TID 0000.0001)     ;
(PID.TID 0000.0001) GM_Visbeck_alpha = /* Visbeck alpha coeff. [-] */
(PID.TID 0000.0001)                 0.000000000000000E+00
(PID.TID 0000.0001)     ;
(PID.TID 0000.0001) GM_Small_Number =  /* epsilon used in slope calc */
(PID.TID 0000.0001)                 9.999999999999999E-21
(PID.TID 0000.0001)     ;
(PID.TID 0000.0001) GM_slopeSqCutoff = /* Slope^2 cut-off value */
(PID.TID 0000.0001)                 1.000000000000000E+48
(PID.TID 0000.0001)     ;
(PID.TID 0000.0001) GM_taper_scheme =  /* Type of Tapering/Clipping scheme */
(PID.TID 0000.0001)               'gkw91                                   '
(PID.TID 0000.0001)     ;
(PID.TID 0000.0001) GM_maxSlope =  /* Maximum Slope (Tapering/Clipping) */
(PID.TID 0000.0001)                 1.000000000000000E-02
(PID.TID 0000.0001)     ;
(PID.TID 0000.0001) GM_facTrL2dz = /* Minimum Trans.Layer Thick. (factor of dz) */
(PID.TID 0000.0001)                 1.000000000000000E+00
(PID.TID 0000.0001)     ;
(PID.TID 0000.0001) GM_facTrL2ML = /* Max.Trans.Layer Thick. (factor of MxL Depth)*/
(PID.TID 0000.0001)                 5.000000000000000E+00
(PID.TID 0000.0001)     ;
(PID.TID 0000.0001) GM_maxTransLay = /* Maximum Transition Layer Thickness [m] */
(PID.TID 0000.0001)                 5.000000000000000E+02
(PID.TID 0000.0001)     ;
(PID.TID 0000.0001) GM_UseBVP = /* if TRUE => use bvp a la Ferrari et al. (2010) */
(PID.TID 0000.0001)                   F
(PID.TID 0000.0001)     ;
(PID.TID 0000.0001) GM_BVP_ModeNumber = /* Vertical mode number for BVP wave speed */
(PID.TID 0000.0001)                       1
(PID.TID 0000.0001)     ;
(PID.TID 0000.0001) GM_BVP_cMin = /* Minimum wave speed for BVP [m/s] */
(PID.TID 0000.0001)                 1.000000000000000E-01
(PID.TID 0000.0001)     ;
(PID.TID 0000.0001) GM_useSubMeso = /* if TRUE => use Sub-Meso param. (B.Fox-Kemper) */
(PID.TID 0000.0001)                   F
(PID.TID 0000.0001)     ;
(PID.TID 0000.0001) subMeso_Ceff = /* efficiency coeff. of Mixed-Layer Eddies [-] */
(PID.TID 0000.0001)                 7.000000000000001E-02
(PID.TID 0000.0001)     ;
(PID.TID 0000.0001) subMeso_invTau = /* inverse of Sub-Meso mixing time-scale [/s] */
(PID.TID 0000.0001)                 2.000000000000000E-06
(PID.TID 0000.0001)     ;
(PID.TID 0000.0001) subMeso_LfMin = /* minimum length-scale "Lf" [m] */
(PID.TID 0000.0001)                 1.000000000000000E+03
(PID.TID 0000.0001)     ;
(PID.TID 0000.0001) subMeso_Lmax = /* maximum grid-scale length [m] */
(PID.TID 0000.0001)                 1.100000000000000E+05
(PID.TID 0000.0001)     ;
(PID.TID 0000.0001) THSICE_CHECK: #define THSICE
(PID.TID 0000.0001) GAD_CHECK: #define ALLOW_GENERIC_ADVDIFF
(PID.TID 0000.0001) // =======================================================
(PID.TID 0000.0001) // CONFIG_CHECK : Normal End
(PID.TID 0000.0001) // =======================================================
(PID.TID 0000.0001) 
(PID.TID 0000.0001)  MDS_READ_META: opening file: pickup.0000036000.meta
(PID.TID 0000.0001)  nRecords = 123 ; filePrec =  64 ; fileIter =     36000
(PID.TID 0000.0001)     nDims =   2 , dims:
(PID.TID 0000.0001)    1: 192   1 192
(PID.TID 0000.0001)    2:  32   1  32
(PID.TID 0000.0001)     nFlds =  11 , nFl3D =   8 , fields:
(PID.TID 0000.0001)  >Uvel    < >GuNm1   < >Vvel    < >GvNm1   < >Theta   < >GtNm1   < >Salt    < >GsNm1   < >EtaN    < >dEtaHdt < >EtaH    <
(PID.TID 0000.0001)   nTimRec =   0 , timeList:
(PID.TID 0000.0001) READ_MFLDS_3D_RL: read field: "Uvel    ", #   1 in fldList, rec=   1
(PID.TID 0000.0001)  MDS_READ_FIELD: opening global file: pickup.0000036000
(PID.TID 0000.0001) READ_MFLDS_3D_RL: read field: "Vvel    ", #   3 in fldList, rec=   3
(PID.TID 0000.0001)  MDS_READ_FIELD: opening global file: pickup.0000036000
(PID.TID 0000.0001) READ_MFLDS_3D_RL: read field: "Theta   ", #   5 in fldList, rec=   5
(PID.TID 0000.0001)  MDS_READ_FIELD: opening global file: pickup.0000036000
(PID.TID 0000.0001) READ_MFLDS_3D_RL: read field: "Salt    ", #   7 in fldList, rec=   7
(PID.TID 0000.0001)  MDS_READ_FIELD: opening global file: pickup.0000036000
(PID.TID 0000.0001) READ_MFLDS_3D_RL: read field: "GuNm1   ", #   2 in fldList, rec=   2
(PID.TID 0000.0001)  MDS_READ_FIELD: opening global file: pickup.0000036000
(PID.TID 0000.0001) READ_MFLDS_3D_RL: read field: "GvNm1   ", #   4 in fldList, rec=   4
(PID.TID 0000.0001)  MDS_READ_FIELD: opening global file: pickup.0000036000
(PID.TID 0000.0001) READ_MFLDS_3D_RL: read field: "GtNm1   ", #   6 in fldList, rec=   6
(PID.TID 0000.0001)  MDS_READ_FIELD: opening global file: pickup.0000036000
(PID.TID 0000.0001) READ_MFLDS_3D_RL: read field: "GsNm1   ", #   8 in fldList, rec=   8
(PID.TID 0000.0001)  MDS_READ_FIELD: opening global file: pickup.0000036000
(PID.TID 0000.0001) READ_MFLDS_3D_RL: read field: "EtaN    ", #   9 in fldList, rec= 121
(PID.TID 0000.0001)  MDS_READ_FIELD: opening global file: pickup.0000036000
(PID.TID 0000.0001) READ_MFLDS_3D_RL: read field: "dEtaHdt ", #  10 in fldList, rec= 122
(PID.TID 0000.0001)  MDS_READ_FIELD: opening global file: pickup.0000036000
(PID.TID 0000.0001) READ_MFLDS_3D_RL: read field: "EtaH    ", #  11 in fldList, rec= 123
(PID.TID 0000.0001)  MDS_READ_FIELD: opening global file: pickup.0000036000
(PID.TID 0000.0001) READ_MFLDS_CHECK: - normal end ; reset MFLDS file-name: pickup.0000036000
(PID.TID 0000.0001)  MDS_READ_FIELD: opening global file: trenberth_taux.bin
(PID.TID 0000.0001)  MDS_READ_FIELD: opening global file: trenberth_tauy.bin
(PID.TID 0000.0001)  MDS_READ_FIELD: opening global file: lev_surfT_cs_12m.bin
(PID.TID 0000.0001)  MDS_READ_FIELD: opening global file: lev_surfS_cs_12m.bin
(PID.TID 0000.0001)  write diagnostics summary to file ioUnit:      6
Iter.Nb:     36000 ; Time(s):  3.1104000000000E+09
------------------------------------------------------------------------
2D/3D diagnostics: Number of lists:     6
------------------------------------------------------------------------
listId=    1 ; file name: surfDiag
 nFlds, nActive,       freq     &     phase        , nLev               
   17  |   17  |1555200000.000000         0.000000 |   1
 levels:   1
 diag# | name   |   ipt  |  iMate | kLev|   count |   mate.C|           
    23 |ETAN    |      1 |      0 |   1 |       0 |
    24 |ETANSQ  |      2 |      0 |   1 |       0 |
    25 |DETADT2 |      3 |      0 |   1 |       0 |
    73 |PHIBOT  |      4 |      0 |   1 |       0 |
    74 |PHIBOTSQ|      5 |      0 |   1 |       0 |
    80 |oceTAUX |      6 |      7 |   1 |       0 |       0 |
    81 |oceTAUY |      7 |      6 |   1 |       0 |       0 |
    89 |TRELAX  |      8 |      0 |   1 |       0 |
    90 |SRELAX  |      9 |      0 |   1 |       0 |
    91 |surForcT|     10 |      0 |   1 |       0 |
    92 |surForcS|     11 |      0 |   1 |       0 |
    93 |TFLUX   |     12 |      0 |   1 |       0 |
    94 |SFLUX   |     13 |      0 |   1 |       0 |
    87 |oceQsw  |     14 |      0 |   1 |       0 |
    86 |oceQnet |     15 |      0 |   1 |       0 |
    85 |oceSflux|     16 |      0 |   1 |       0 |
    84 |oceFWflx|     17 |      0 |   1 |       0 |
------------------------------------------------------------------------
listId=    2 ; file name: dynDiag
 nFlds, nActive,       freq     &     phase        , nLev               
   15  |   15  |1555200000.000000         0.000000 |  15
 levels:   1   2   3   4   5   6   7   8   9  10  11  12  13  14  15
 diag# | name   |   ipt  |  iMate | kLev|   count |   mate.C|           
    30 |UVEL    |     18 |     33 |  15 |       0 |       0 |
    31 |VVEL    |     33 |     18 |  15 |       0 |       0 |
    32 |WVEL    |     48 |      0 |  15 |       0 |
    71 |PHIHYD  |     63 |      0 |  15 |       0 |
    46 |VVELMASS|     78 |     93 |  15 |       0 |       0 |
    45 |UVELMASS|     93 |     78 |  15 |       0 |       0 |
    38 |WVELSQ  |    108 |      0 |  15 |       0 |
    26 |THETA   |    123 |      0 |  15 |       0 |
    50 |UTHMASS |    138 |    153 |  15 |       0 |       0 |
    51 |VTHMASS |    153 |    138 |  15 |       0 |       0 |
    52 |WTHMASS |    168 |      0 |  15 |       0 |
    27 |SALT    |    183 |      0 |  15 |       0 |
    53 |USLTMASS|    198 |    213 |  15 |       0 |       0 |
    54 |VSLTMASS|    213 |    198 |  15 |       0 |       0 |
    55 |WSLTMASS|    228 |      0 |  15 |       0 |
------------------------------------------------------------------------
listId=    3 ; file name: thSIceDiag
 nFlds, nActive,       freq     &     phase        , nLev               
   16  |   17  |1555200000.000000         0.000000 |   1
 levels:   1
 diag# | name   |   ipt  |  iMate | kLev|   count |   mate.C|           
   211 |SI_Fract|    243 |      0 |   1 |      0(x 12) |
   212 |SI_Thick|    255 |    243 |   1 |      0(x 12) |
   213 |SI_SnowH|    267 |    243 |   1 |      0(x 12) |
   214 |SI_Tsrf |    279 |    243 |   1 |      0(x 12) |
   215 |SI_Tice1|    291 |    243 |   1 |      0(x 12) |
   216 |SI_Tice2|    303 |    243 |   1 |      0(x 12) |
   217 |SI_Qice1|    315 |    255 |   1 |      0(x 12) |
   218 |SI_Qice2|    327 |    255 |   1 |      0(x 12) |
   219 |SIsnwAge|    339 |      0 |   1 |      0(x 12) |
   222 |SIsnwPrc|    351 |    363 |   1 |      0(x 12) |
   221 |SIalbedo|    375 |    363 |   1 |      0(x 12) |
   225 |SIflx2oc|    387 |      0 |   1 |      0(x 12) |
   226 |SIfrw2oc|    399 |      0 |   1 |      0(x 12) |
   227 |SIsaltFx|    411 |      0 |   1 |      0(x 12) |
   223 |SIflxAtm|    423 |      0 |   1 |      0(x 12) |
   224 |SIfrwAtm|    435 |      0 |   1 |      0(x 12) |
   220 |SI_FrcFx|    363 |      0 |   1 |      0(x 12) |
------------------------------------------------------------------------
listId=    4 ; file name: surfInst
 nFlds, nActive,       freq     &     phase        , nLev               
    2  |    2  |   -777600.000000         0.000000 |   1
 levels:   1
 diag# | name   |   ipt  |  iMate | kLev|   count |   mate.C|           
    23 |ETAN    |    447 |      0 |   1 |       0 |
    84 |oceFWflx|    448 |      0 |   1 |       0 |
------------------------------------------------------------------------
listId=    5 ; file name: etaInst
 nFlds, nActive,       freq     &     phase        , nLev               
    1  |    1  |   -777600.000000     86400.000000 |   1
 levels:   1
 diag# | name   |   ipt  |  iMate | kLev|   count |   mate.C|           
    23 |ETAN    |    449 |      0 |   1 |       0 |
------------------------------------------------------------------------
listId=    6 ; file name: dynInst
 nFlds, nActive,       freq     &     phase        , nLev               
    2  |    2  |   -777600.000000         0.000000 |  15
 levels:   1   2   3   4   5   6   7   8   9  10  11  12  13  14  15
 diag# | name   |   ipt  |  iMate | kLev|   count |   mate.C|           
    26 |THETA   |    450 |      0 |  15 |       0 |
    27 |SALT    |    465 |      0 |  15 |       0 |
------------------------------------------------------------------------
Global & Regional Statistics diagnostics: Number of lists:     4
------------------------------------------------------------------------
listId=   1 ; file name: dynStDiag
 nFlds, nActive,       freq     &     phase        |                    
    6  |    6  |    864000.000000         0.000000 |
 Regions:   0
 diag# | name   |   ipt  |  iMate |    Volume   |   mate-Vol. |         
    23 |ETAN    |      1 |      0 | 0.00000E+00 |
    24 |ETANSQ  |      2 |      0 | 0.00000E+00 |
    25 |DETADT2 |      3 |      0 | 0.00000E+00 |
    26 |THETA   |      4 |      0 | 0.00000E+00 |
    27 |SALT    |     19 |      0 | 0.00000E+00 |
    79 |CONVADJ |     34 |      0 | 0.00000E+00 |
------------------------------------------------------------------------
listId=   2 ; file name: surfStDiag
 nFlds, nActive,       freq     &     phase        |                    
   11  |   11  |    777600.000000     86400.000000 |
 Regions:   0
 diag# | name   |   ipt  |  iMate |    Volume   |   mate-Vol. |         
    80 |oceTAUX |     49 |      0 | 0.00000E+00 |
    81 |oceTAUY |     50 |      0 | 0.00000E+00 |
    89 |TRELAX  |     51 |      0 | 0.00000E+00 |
    90 |SRELAX  |     52 |      0 | 0.00000E+00 |
    91 |surForcT|     53 |      0 | 0.00000E+00 |
    92 |surForcS|     54 |      0 | 0.00000E+00 |
    93 |TFLUX   |     55 |      0 | 0.00000E+00 |
    94 |SFLUX   |     56 |      0 | 0.00000E+00 |
    86 |oceQnet |     57 |      0 | 0.00000E+00 |
    85 |oceSflux|     58 |      0 | 0.00000E+00 |
    84 |oceFWflx|     59 |      0 | 0.00000E+00 |
------------------------------------------------------------------------
listId=   3 ; file name: instStDiag
 nFlds, nActive,       freq     &     phase        |                    
    3  |    3  |   -777600.000000     86400.000000 |
 Regions:   0
 diag# | name   |   ipt  |  iMate |    Volume   |   mate-Vol. |         
    23 |ETAN    |     60 |      0 | 0.00000E+00 |
    26 |THETA   |     61 |      0 | 0.00000E+00 |
    27 |SALT    |     76 |      0 | 0.00000E+00 |
------------------------------------------------------------------------
listId=   4 ; file name: thSIceStDiag
 nFlds, nActive,       freq     &     phase        |                    
   16  |   17  |    864000.000000         0.000000 |
 Regions:   0  1  3
 diag# | name   |   ipt  |  iMate |    Volume   |   mate-Vol. |         
   211 |SI_Fract|     91 |      0 | 0.00000E+00 |
   212 |SI_Thick|     92 |     91 | 0.00000E+00 | 0.00000E+00 |
   213 |SI_SnowH|     93 |     91 | 0.00000E+00 | 0.00000E+00 |
   214 |SI_Tsrf |     94 |     91 | 0.00000E+00 | 0.00000E+00 |
   215 |SI_Tice1|     95 |     91 | 0.00000E+00 | 0.00000E+00 |
   216 |SI_Tice2|     96 |     91 | 0.00000E+00 | 0.00000E+00 |
   217 |SI_Qice1|     97 |     92 | 0.00000E+00 | 0.00000E+00 |
   218 |SI_Qice2|     98 |     92 | 0.00000E+00 | 0.00000E+00 |
   222 |SIsnwPrc|     99 |    100 | 0.00000E+00 | 0.00000E+00 |
   221 |SIalbedo|    101 |    100 | 0.00000E+00 | 0.00000E+00 |
   219 |SIsnwAge|    102 |      0 | 0.00000E+00 |
   225 |SIflx2oc|    103 |      0 | 0.00000E+00 |
   226 |SIfrw2oc|    104 |      0 | 0.00000E+00 |
   227 |SIsaltFx|    105 |      0 | 0.00000E+00 |
   223 |SIflxAtm|    106 |      0 | 0.00000E+00 |
   224 |SIfrwAtm|    107 |      0 | 0.00000E+00 |
   220 |SI_FrcFx|    100 |      0 | 0.00000E+00 |
------------------------------------------------------------------------
(PID.TID 0000.0001)  MDS_READ_FIELD: opening global file: pickup_ic.0000036000
(PID.TID 0000.0001)  MDS_READ_FIELD: opening global file: pickup_ic.0000036000
(PID.TID 0000.0001)  MDS_READ_FIELD: opening global file: pickup_ic.0000036000
(PID.TID 0000.0001)  MDS_READ_FIELD: opening global file: pickup_ic.0000036000
(PID.TID 0000.0001)  MDS_READ_FIELD: opening global file: pickup_ic.0000036000
(PID.TID 0000.0001)  MDS_READ_FIELD: opening global file: pickup_ic.0000036000
(PID.TID 0000.0001)  MDS_READ_FIELD: opening global file: pickup_ic.0000036000
(PID.TID 0000.0001)  MDS_READ_FIELD: opening global file: pickup_ic.0000036000
(PID.TID 0000.0001)  MDS_READ_FIELD: opening global file: pickup_ic.0000036000
(PID.TID 0000.0001) // =======================================================
(PID.TID 0000.0001) // Model current state
(PID.TID 0000.0001) // =======================================================
(PID.TID 0000.0001) 
(PID.TID 0000.0001) // =======================================================
(PID.TID 0000.0001) // Begin MONITOR dynamic field statistics
(PID.TID 0000.0001) // =======================================================
(PID.TID 0000.0001) %MON time_tsnumber                =                 36000
(PID.TID 0000.0001) %MON time_secondsf                =   3.1104000000000E+09
(PID.TID 0000.0001) %MON dynstat_eta_max              =   7.3500434503471E-01
(PID.TID 0000.0001) %MON dynstat_eta_min              =  -1.1986891348601E+01
(PID.TID 0000.0001) %MON dynstat_eta_mean             =  -5.8045564487853E-01
(PID.TID 0000.0001) %MON dynstat_eta_sd               =   1.6994311255501E+00
(PID.TID 0000.0001) %MON dynstat_eta_del2             =   2.0900254542352E-02
(PID.TID 0000.0001) %MON dynstat_uvel_max             =   1.7235154042170E-01
(PID.TID 0000.0001) %MON dynstat_uvel_min             =  -2.7145887709522E-01
(PID.TID 0000.0001) %MON dynstat_uvel_mean            =  -5.2887824837157E-04
(PID.TID 0000.0001) %MON dynstat_uvel_sd              =   1.2989468965472E-02
(PID.TID 0000.0001) %MON dynstat_uvel_del2            =   5.8837039483483E-05
(PID.TID 0000.0001) %MON dynstat_vvel_max             =   1.9306786753954E-01
(PID.TID 0000.0001) %MON dynstat_vvel_min             =  -2.1050631286072E-01
(PID.TID 0000.0001) %MON dynstat_vvel_mean            =  -4.2470116939793E-04
(PID.TID 0000.0001) %MON dynstat_vvel_sd              =   1.3472945317820E-02
(PID.TID 0000.0001) %MON dynstat_vvel_del2            =   5.6407764932197E-05
(PID.TID 0000.0001) %MON dynstat_wvel_max             =   8.3888727589247E-05
(PID.TID 0000.0001) %MON dynstat_wvel_min             =  -1.7681850941337E-04
(PID.TID 0000.0001) %MON dynstat_wvel_mean            =  -1.2631701181817E-09
(PID.TID 0000.0001) %MON dynstat_wvel_sd              =   4.6274614748344E-06
(PID.TID 0000.0001) %MON dynstat_wvel_del2            =   4.0327258278207E-08
(PID.TID 0000.0001) %MON dynstat_theta_max            =   3.0162021109834E+01
(PID.TID 0000.0001) %MON dynstat_theta_min            =  -5.5087736803077E+00
(PID.TID 0000.0001) %MON dynstat_theta_mean           =   3.5027154873320E+00
(PID.TID 0000.0001) %MON dynstat_theta_sd             =   4.7490175075967E+00
(PID.TID 0000.0001) %MON dynstat_theta_del2           =   2.9355189374162E-03
(PID.TID 0000.0001) %MON dynstat_salt_max             =   4.0815425249776E+01
(PID.TID 0000.0001) %MON dynstat_salt_min             =   1.8030178312691E+01
(PID.TID 0000.0001) %MON dynstat_salt_mean            =   3.4756092396968E+01
(PID.TID 0000.0001) %MON dynstat_salt_sd              =   5.1193688315107E-01
(PID.TID 0000.0001) %MON dynstat_salt_del2            =   8.3648722179445E-04
(PID.TID 0000.0001) %MON forcing_qnet_max             =   0.0000000000000E+00
(PID.TID 0000.0001) %MON forcing_qnet_min             =   0.0000000000000E+00
(PID.TID 0000.0001) %MON forcing_qnet_mean            =   0.0000000000000E+00
(PID.TID 0000.0001) %MON forcing_qnet_sd              =   0.0000000000000E+00
(PID.TID 0000.0001) %MON forcing_qnet_del2            =   0.0000000000000E+00
(PID.TID 0000.0001) %MON forcing_qsw_max              =   0.0000000000000E+00
(PID.TID 0000.0001) %MON forcing_qsw_min              =   0.0000000000000E+00
(PID.TID 0000.0001) %MON forcing_qsw_mean             =   0.0000000000000E+00
(PID.TID 0000.0001) %MON forcing_qsw_sd               =   0.0000000000000E+00
(PID.TID 0000.0001) %MON forcing_qsw_del2             =   0.0000000000000E+00
(PID.TID 0000.0001) %MON forcing_empmr_max            =   0.0000000000000E+00
(PID.TID 0000.0001) %MON forcing_empmr_min            =   0.0000000000000E+00
(PID.TID 0000.0001) %MON forcing_empmr_mean           =   0.0000000000000E+00
(PID.TID 0000.0001) %MON forcing_empmr_sd             =   0.0000000000000E+00
(PID.TID 0000.0001) %MON forcing_empmr_del2           =   0.0000000000000E+00
(PID.TID 0000.0001) %MON forcing_fu_max               =   2.4892781143428E-01
(PID.TID 0000.0001) %MON forcing_fu_min               =  -2.5159107438040E-01
(PID.TID 0000.0001) %MON forcing_fu_mean              =  -3.8956966288612E-03
(PID.TID 0000.0001) %MON forcing_fu_sd                =   6.5480383395885E-02
(PID.TID 0000.0001) %MON forcing_fu_del2              =   2.3114393556995E-04
(PID.TID 0000.0001) %MON forcing_fv_max               =   2.9305960402537E-01
(PID.TID 0000.0001) %MON forcing_fv_min               =  -3.3950131228473E-01
(PID.TID 0000.0001) %MON forcing_fv_mean              =  -1.3743384707768E-02
(PID.TID 0000.0001) %MON forcing_fv_sd                =   7.6816469815204E-02
(PID.TID 0000.0001) %MON forcing_fv_del2              =   2.5671701728584E-04
(PID.TID 0000.0001) %MON advcfl_uvel_max              =   7.6990886762546E-02
(PID.TID 0000.0001) %MON advcfl_vvel_max              =   8.4155563479013E-02
(PID.TID 0000.0001) %MON advcfl_wvel_max              =   5.7649506465342E-02
(PID.TID 0000.0001) %MON advcfl_W_hf_max              =   6.5892167239956E-02
(PID.TID 0000.0001) %MON pe_b_mean                    =   4.2969665467446E-03
(PID.TID 0000.0001) %MON ke_max                       =   3.6920742855791E-02
(PID.TID 0000.0001) %MON ke_mean                      =   1.6194090277160E-04
(PID.TID 0000.0001) %MON ke_vol                       =   1.3395912415612E+18
(PID.TID 0000.0001) %MON vort_r_min                   =  -1.2103928619458E-06
(PID.TID 0000.0001) %MON vort_r_max                   =   1.3658356323918E-06
(PID.TID 0000.0001) %MON vort_a_mean                  =  -2.0549865324846E-05
(PID.TID 0000.0001) %MON vort_a_sd                    =   7.5259583459532E-05
(PID.TID 0000.0001) %MON vort_p_mean                  =  -2.4787190757548E-05
(PID.TID 0000.0001) %MON vort_p_sd                    =   1.2817278044840E-04
(PID.TID 0000.0001) %MON surfExpan_theta_mean         =   8.4664546923379E-08
(PID.TID 0000.0001) %MON surfExpan_salt_mean          =   2.0573162615946E-08
(PID.TID 0000.0001) // =======================================================
(PID.TID 0000.0001) // End MONITOR dynamic field statistics
(PID.TID 0000.0001) // =======================================================
(PID.TID 0000.0001) // =======================================================
(PID.TID 0000.0001) // Begin MONITOR Therm.SeaIce statistics
(PID.TID 0000.0001) // =======================================================
(PID.TID 0000.0001) %MON thSI_time_sec                =   3.1104000000000E+09
(PID.TID 0000.0001) %MON thSI_Ice_Area_G              =   2.4716044426698E+13
(PID.TID 0000.0001) %MON thSI_Ice_Area_S              =   1.2123515471256E+13
(PID.TID 0000.0001) %MON thSI_Ice_Area_N              =   1.2592528955442E+13
(PID.TID 0000.0001) %MON thSI_IceH_ave_G              =   4.5665991101486E+00
(PID.TID 0000.0001) %MON thSI_IceH_ave_S              =   5.6548113929333E+00
(PID.TID 0000.0001) %MON thSI_IceH_ave_N              =   3.5189177037341E+00
(PID.TID 0000.0001) %MON thSI_IceH_max_S              =   1.0000000000000E+01
(PID.TID 0000.0001) %MON thSI_IceH_max_N              =   1.0000000000000E+01
(PID.TID 0000.0001) %MON thSI_SnwH_ave_G              =   1.0642325960795E+00
(PID.TID 0000.0001) %MON thSI_SnwH_ave_S              =   1.8039252994821E+00
(PID.TID 0000.0001) %MON thSI_SnwH_ave_N              =   3.5209002603598E-01
(PID.TID 0000.0001) %MON thSI_SnwH_max_S              =   4.0920173287519E+00
(PID.TID 0000.0001) %MON thSI_SnwH_max_N              =   4.0933581672150E+00
(PID.TID 0000.0001) %MON thSI_Tsrf_ave_G              =  -1.6644740861567E+01
(PID.TID 0000.0001) %MON thSI_Tsrf_ave_S              =  -1.2271804409750E-01
(PID.TID 0000.0001) %MON thSI_Tsrf_ave_N              =  -3.2551394715834E+01
(PID.TID 0000.0001) %MON thSI_Tsrf_min_S              =  -5.2879155123950E+00
(PID.TID 0000.0001) %MON thSI_Tsrf_min_N              =  -4.6099403861095E+01
(PID.TID 0000.0001) %MON thSI_Tsrf_max_S              =   0.0000000000000E+00
(PID.TID 0000.0001) %MON thSI_Tsrf_max_N              =  -1.7223298637424E+00
(PID.TID 0000.0001) %MON thSI_Tic1_ave_G              =  -8.3503593345479E+00
(PID.TID 0000.0001) %MON thSI_Tic1_ave_S              =  -5.1859254669298E+00
(PID.TID 0000.0001) %MON thSI_Tic1_ave_N              =  -1.3246125323351E+01
(PID.TID 0000.0001) %MON thSI_Tic1_min_S              =  -1.7372153208148E+01
(PID.TID 0000.0001) %MON thSI_Tic1_min_N              =  -2.0584120855350E+01
(PID.TID 0000.0001) %MON thSI_Tic1_max_S              =  -1.5363024655854E-01
(PID.TID 0000.0001) %MON thSI_Tic1_max_N              =  -5.8630083767312E-01
(PID.TID 0000.0001) %MON thSI_Tic2_ave_G              =  -3.7701031784537E+00
(PID.TID 0000.0001) %MON thSI_Tic2_ave_S              =  -3.1173552909385E+00
(PID.TID 0000.0001) %MON thSI_Tic2_ave_N              =  -4.7799839472262E+00
(PID.TID 0000.0001) %MON thSI_Tic2_min_S              =  -8.8326933331569E+00
(PID.TID 0000.0001) %MON thSI_Tic2_min_N              =  -7.3985906582730E+00
(PID.TID 0000.0001) %MON thSI_Tic2_max_S              =  -1.1778332319913E+00
(PID.TID 0000.0001) %MON thSI_Tic2_max_N              =  -1.1561961802541E+00
(PID.TID 0000.0001) %MON thSI_TotEnerg_G              =  -3.7927617991529E+22
(PID.TID 0000.0001) // =======================================================
(PID.TID 0000.0001) // End MONITOR Therm.SeaIce statistics
(PID.TID 0000.0001) // =======================================================
 BULKF_FIELDS_LOAD,     36000 : iP,iLd,i0,i1=   12    0   12    1 ; Wght=  0.5000000000  0.5000000000
 BULKF_FIELDS_LOAD, it=     36000 : Reading new data, i0,i1=   12    1 (prev=   12    0 )
(PID.TID 0000.0001)  MDS_READ_FIELD: opening global file: ncep_tair_cs.bin
(PID.TID 0000.0001)  MDS_READ_FIELD: opening global file: ncep_tair_cs.bin
(PID.TID 0000.0001)  MDS_READ_FIELD: opening global file: ncep_qair_cs.bin
(PID.TID 0000.0001)  MDS_READ_FIELD: opening global file: ncep_qair_cs.bin
(PID.TID 0000.0001)  MDS_READ_FIELD: opening global file: ncep_downsolar_cs.bin
(PID.TID 0000.0001)  MDS_READ_FIELD: opening global file: ncep_downsolar_cs.bin
(PID.TID 0000.0001)  MDS_READ_FIELD: opening global file: ncep_downlw_cs.bin
(PID.TID 0000.0001)  MDS_READ_FIELD: opening global file: ncep_downlw_cs.bin
(PID.TID 0000.0001)  MDS_READ_FIELD: opening global file: ncep_windspeed_cs.bin
(PID.TID 0000.0001)  MDS_READ_FIELD: opening global file: ncep_windspeed_cs.bin
(PID.TID 0000.0001)  MDS_READ_FIELD: opening global file: ncep_pr_scal_cs.bin
(PID.TID 0000.0001)  MDS_READ_FIELD: opening global file: ncep_pr_scal_cs.bin
 EXTERNAL_FIELDS_LOAD,     36000 : iP,iLd,i0,i1=   12    0   12    1 ; Wght=  0.5000000000  0.5000000000
 EXTERNAL_FIELDS_LOAD, it=     36000 : Reading new data, i0,i1=   12    1 (prev=   12    0 )
(PID.TID 0000.0001)  MDS_READ_FIELD: opening global file: trenberth_taux.bin
(PID.TID 0000.0001)  MDS_READ_FIELD: opening global file: trenberth_taux.bin
(PID.TID 0000.0001)  MDS_READ_FIELD: opening global file: trenberth_tauy.bin
(PID.TID 0000.0001)  MDS_READ_FIELD: opening global file: trenberth_tauy.bin
(PID.TID 0000.0001)  MDS_READ_FIELD: opening global file: lev_surfT_cs_12m.bin
(PID.TID 0000.0001)  MDS_READ_FIELD: opening global file: lev_surfT_cs_12m.bin
(PID.TID 0000.0001)  MDS_READ_FIELD: opening global file: lev_surfS_cs_12m.bin
(PID.TID 0000.0001)  MDS_READ_FIELD: opening global file: lev_surfS_cs_12m.bin
(PID.TID 0000.0001) SOLVE_FOR_PRESSURE: putPmEinXvector =    F
(PID.TID 0000.0001) SOLVE_FOR_PRESSURE: zeroPsNH=    F , zeroMeanPnh=    F
(PID.TID 0000.0001) SOLVE_FOR_PRESSURE: oldFreeSurfTerm =    F
 cg2d: Sum(rhs),rhsMax =   3.91123171841600E+02  2.29216909151821E+02
(PID.TID 0000.0001)                    cg2d_init_res =    1.95242193209935E+01
(PID.TID 0000.0001)                       cg2d_iters =    72
(PID.TID 0000.0001)                         cg2d_res =    5.46408886396900E-07
(PID.TID 0000.0001) // =======================================================
(PID.TID 0000.0001) // Begin MONITOR dynamic field statistics
(PID.TID 0000.0001) // =======================================================
(PID.TID 0000.0001) %MON time_tsnumber                =                 36001
(PID.TID 0000.0001) %MON time_secondsf                =   3.1104864000000E+09
(PID.TID 0000.0001) %MON dynstat_eta_max              =   7.3388365064228E-01
(PID.TID 0000.0001) %MON dynstat_eta_min              =  -1.1986231184597E+01
(PID.TID 0000.0001) %MON dynstat_eta_mean             =  -5.8173432388293E-01
(PID.TID 0000.0001) %MON dynstat_eta_sd               =   1.7027393996681E+00
(PID.TID 0000.0001) %MON dynstat_eta_del2             =   2.1076783275783E-02
(PID.TID 0000.0001) %MON dynstat_uvel_max             =   1.7286116299088E-01
(PID.TID 0000.0001) %MON dynstat_uvel_min             =  -2.7114320697541E-01
(PID.TID 0000.0001) %MON dynstat_uvel_mean            =  -5.2865022965187E-04
(PID.TID 0000.0001) %MON dynstat_uvel_sd              =   1.2989393178518E-02
(PID.TID 0000.0001) %MON dynstat_uvel_del2            =   5.8821803371260E-05
(PID.TID 0000.0001) %MON dynstat_vvel_max             =   1.9356390916179E-01
(PID.TID 0000.0001) %MON dynstat_vvel_min             =  -2.1061335313895E-01
(PID.TID 0000.0001) %MON dynstat_vvel_mean            =  -4.2461259113623E-04
(PID.TID 0000.0001) %MON dynstat_vvel_sd              =   1.3474964755062E-02
(PID.TID 0000.0001) %MON dynstat_vvel_del2            =   5.6363744991273E-05
(PID.TID 0000.0001) %MON dynstat_wvel_max             =   8.3985212379618E-05
(PID.TID 0000.0001) %MON dynstat_wvel_min             =  -1.7706298341014E-04
(PID.TID 0000.0001) %MON dynstat_wvel_mean            =   1.7416098782922E-09
(PID.TID 0000.0001) %MON dynstat_wvel_sd              =   4.6302076880399E-06
(PID.TID 0000.0001) %MON dynstat_wvel_del2            =   4.0408133923544E-08
(PID.TID 0000.0001) %MON dynstat_theta_max            =   3.0143977318531E+01
(PID.TID 0000.0001) %MON dynstat_theta_min            =  -4.0278003981721E+00
(PID.TID 0000.0001) %MON dynstat_theta_mean           =   3.5028309605796E+00
(PID.TID 0000.0001) %MON dynstat_theta_sd             =   4.7489713227469E+00
(PID.TID 0000.0001) %MON dynstat_theta_del2           =   2.9391436410552E-03
(PID.TID 0000.0001) %MON dynstat_salt_max             =   4.0818099946521E+01
(PID.TID 0000.0001) %MON dynstat_salt_min             =   1.8030808815839E+01
(PID.TID 0000.0001) %MON dynstat_salt_mean            =   3.4756104174753E+01
(PID.TID 0000.0001) %MON dynstat_salt_sd              =   5.1189179646370E-01
(PID.TID 0000.0001) %MON dynstat_salt_del2            =   8.3943621023045E-04
(PID.TID 0000.0001) %MON forcing_qnet_max             =   7.7549616936275E+02
(PID.TID 0000.0001) %MON forcing_qnet_min             =  -8.9676147940171E+03
(PID.TID 0000.0001) %MON forcing_qnet_mean            =  -1.4533423828233E+01
(PID.TID 0000.0001) %MON forcing_qnet_sd              =   2.3414680962637E+02
(PID.TID 0000.0001) %MON forcing_qnet_del2            =   5.9824190539883E+00
(PID.TID 0000.0001) %MON forcing_qsw_max              =  -0.0000000000000E+00
(PID.TID 0000.0001) %MON forcing_qsw_min              =  -3.4195662119167E+02
(PID.TID 0000.0001) %MON forcing_qsw_mean             =  -1.8643093634317E+02
(PID.TID 0000.0001) %MON forcing_qsw_sd               =   8.0933736225501E+01
(PID.TID 0000.0001) %MON forcing_qsw_del2             =   6.7406354942812E-01
(PID.TID 0000.0001) %MON forcing_empmr_max            =   2.6554484665544E-02
(PID.TID 0000.0001) %MON forcing_empmr_min            =  -4.0448513424106E-04
(PID.TID 0000.0001) %MON forcing_empmr_mean           =   1.5317508906792E-05
(PID.TID 0000.0001) %MON forcing_empmr_sd             =   5.1033105559495E-04
(PID.TID 0000.0001) %MON forcing_empmr_del2           =   1.5990962211993E-05
(PID.TID 0000.0001) %MON forcing_fu_max               =   2.4760613571392E-01
(PID.TID 0000.0001) %MON forcing_fu_min               =  -2.0293190974520E-01
(PID.TID 0000.0001) %MON forcing_fu_mean              =  -4.5478806648627E-03
(PID.TID 0000.0001) %MON forcing_fu_sd                =   6.3937396831278E-02
(PID.TID 0000.0001) %MON forcing_fu_del2              =   2.0509729664672E-04
(PID.TID 0000.0001) %MON forcing_fv_max               =   2.5281098043587E-01
(PID.TID 0000.0001) %MON forcing_fv_min               =  -3.2691992401999E-01
(PID.TID 0000.0001) %MON forcing_fv_mean              =  -1.3684501518858E-02
(PID.TID 0000.0001) %MON forcing_fv_sd                =   7.5153512230531E-02
(PID.TID 0000.0001) %MON forcing_fv_del2              =   2.3373863441584E-04
(PID.TID 0000.0001) %MON advcfl_uvel_max              =   7.6901356728721E-02
(PID.TID 0000.0001) %MON advcfl_vvel_max              =   8.4371781033812E-02
(PID.TID 0000.0001) %MON advcfl_wvel_max              =   8.8668887926684E-02
(PID.TID 0000.0001) %MON advcfl_W_hf_max              =   6.5617758705099E-02
(PID.TID 0000.0001) %MON pe_b_mean                    =  -1.9285648876349E-03
(PID.TID 0000.0001) %MON ke_max                       =   3.6817140029557E-02
(PID.TID 0000.0001) %MON ke_mean                      =   1.6196509728825E-04
(PID.TID 0000.0001) %MON ke_vol                       =   1.3395912252519E+18
(PID.TID 0000.0001) %MON vort_r_min                   =  -1.2135568727371E-06
(PID.TID 0000.0001) %MON vort_r_max                   =   1.3680147037095E-06
(PID.TID 0000.0001) %MON vort_a_mean                  =  -2.0549865324846E-05
(PID.TID 0000.0001) %MON vort_a_sd                    =   7.5259583286529E-05
(PID.TID 0000.0001) %MON vort_p_mean                  =  -2.4787190486060E-05
(PID.TID 0000.0001) %MON vort_p_sd                    =   1.2817278636374E-04
(PID.TID 0000.0001) %MON surfExpan_theta_mean         =   3.7878562709874E-08
(PID.TID 0000.0001) %MON surfExpan_salt_mean          =   9.2603282388630E-10
(PID.TID 0000.0001) // =======================================================
(PID.TID 0000.0001) // End MONITOR dynamic field statistics
(PID.TID 0000.0001) // =======================================================
(PID.TID 0000.0001) // =======================================================
(PID.TID 0000.0001) // Begin MONITOR Therm.SeaIce statistics
(PID.TID 0000.0001) // =======================================================
(PID.TID 0000.0001) %MON thSI_time_sec                =   3.1104864000000E+09
(PID.TID 0000.0001) %MON thSI_Ice_Area_G              =   2.4738356411237E+13
(PID.TID 0000.0001) %MON thSI_Ice_Area_S              =   1.2042847194238E+13
(PID.TID 0000.0001) %MON thSI_Ice_Area_N              =   1.2695509216998E+13
(PID.TID 0000.0001) %MON thSI_IceH_ave_G              =   4.5846834480039E+00
(PID.TID 0000.0001) %MON thSI_IceH_ave_S              =   5.6904735119020E+00
(PID.TID 0000.0001) %MON thSI_IceH_ave_N              =   3.5357408226382E+00
(PID.TID 0000.0001) %MON thSI_IceH_max_S              =   1.0000000000000E+01
(PID.TID 0000.0001) %MON thSI_IceH_max_N              =   1.0000000000000E+01
(PID.TID 0000.0001) %MON thSI_SnwH_ave_G              =   1.0583997408712E+00
(PID.TID 0000.0001) %MON thSI_SnwH_ave_S              =   1.8029351955650E+00
(PID.TID 0000.0001) %MON thSI_SnwH_ave_N              =   3.5214002664359E-01
(PID.TID 0000.0001) %MON thSI_SnwH_max_S              =   4.0985942889861E+00
(PID.TID 0000.0001) %MON thSI_SnwH_max_N              =   4.1095075267918E+00
(PID.TID 0000.0001) %MON thSI_Tsrf_ave_G              =  -1.6749297971996E+01
(PID.TID 0000.0001) %MON thSI_Tsrf_ave_S              =  -1.0618241809861E-01
(PID.TID 0000.0001) %MON thSI_Tsrf_ave_N              =  -3.2536809447570E+01
(PID.TID 0000.0001) %MON thSI_Tsrf_min_S              =  -5.3043441467213E+00
(PID.TID 0000.0001) %MON thSI_Tsrf_min_N              =  -4.6213990021686E+01
(PID.TID 0000.0001) %MON thSI_Tsrf_max_S              =   0.0000000000000E+00
(PID.TID 0000.0001) %MON thSI_Tsrf_max_N              =  -6.7474323125520E+00
(PID.TID 0000.0001) %MON thSI_Tic1_ave_G              =  -8.3521197353959E+00
(PID.TID 0000.0001) %MON thSI_Tic1_ave_S              =  -5.1622181897384E+00
(PID.TID 0000.0001) %MON thSI_Tic1_ave_N              =  -1.3222067613469E+01
(PID.TID 0000.0001) %MON thSI_Tic1_min_S              =  -1.7216897768510E+01
(PID.TID 0000.0001) %MON thSI_Tic1_min_N              =  -2.0666395739877E+01
(PID.TID 0000.0001) %MON thSI_Tic1_max_S              =  -2.1831092533945E-01
(PID.TID 0000.0001) %MON thSI_Tic1_max_N              =  -5.9497842414135E-01
(PID.TID 0000.0001) %MON thSI_Tic2_ave_G              =  -3.7741536126138E+00
(PID.TID 0000.0001) %MON thSI_Tic2_ave_S              =  -3.1128115907687E+00
(PID.TID 0000.0001) %MON thSI_Tic2_ave_N              =  -4.7838089671339E+00
(PID.TID 0000.0001) %MON thSI_Tic2_min_S              =  -8.8094598422842E+00
(PID.TID 0000.0001) %MON thSI_Tic2_min_N              =  -7.4380986141887E+00
(PID.TID 0000.0001) %MON thSI_Tic2_max_S              =  -1.1539915958877E+00
(PID.TID 0000.0001) %MON thSI_Tic2_max_N              =  -1.1753502729289E+00
(PID.TID 0000.0001) %MON thSI_TotEnerg_G              =  -3.8086152333288E+22
(PID.TID 0000.0001) // =======================================================
(PID.TID 0000.0001) // End MONITOR Therm.SeaIce statistics
(PID.TID 0000.0001) // =======================================================
 Computing Diagnostic #     23  ETAN         Counter:       1   Parms: SM      M1      
 Computing Diagnostic #     84  oceFWflx     Counter:       1   Parms: SM      U1      
 Computing Diagnostic #     26  THETA        Counter:       1   Parms: SMR     MR      
 Computing Diagnostic #     27  SALT         Counter:       1   Parms: SMR     MR      
 Compute Stats, Diag. #     80  oceTAUX   vol(   0 ): 3.457E+14  Parms: UU      U1      
 Compute Stats, Diag. #     81  oceTAUY   vol(   0 ): 3.478E+14  Parms: VV      U1      
 Compute Stats, Diag. #     89  TRELAX    vol(   0 ): 3.639E+14  Parms: SM      U1      
 Compute Stats, Diag. #     90  SRELAX    vol(   0 ): 3.639E+14  Parms: SM      U1      
 Compute Stats, Diag. #     91  surForcT  vol(   0 ): 3.639E+14  Parms: SM      U1      
 Compute Stats, Diag. #     92  surForcS  vol(   0 ): 3.639E+14  Parms: SM      U1      
 Compute Stats, Diag. #     93  TFLUX     vol(   0 ): 3.639E+14  Parms: SM      U1      
 Compute Stats, Diag. #     94  SFLUX     vol(   0 ): 3.639E+14  Parms: SM      U1      
 Compute Stats, Diag. #     86  oceQnet   vol(   0 ): 3.639E+14  Parms: SM      U1      
 Compute Stats, Diag. #     85  oceSflux  vol(   0 ): 3.639E+14  Parms: SM      U1      
 Compute Stats, Diag. #     84  oceFWflx  vol(   0 ): 3.639E+14  Parms: SM      U1      
 BULKF_FIELDS_LOAD,     36001 : iP,iLd,i0,i1=   12    1   12    1 ; Wght=  0.4666666667  0.5333333333
 EXTERNAL_FIELDS_LOAD,     36001 : iP,iLd,i0,i1=   12    1   12    1 ; Wght=  0.4666666667  0.5333333333
 cg2d: Sum(rhs),rhsMax =   3.91131921135418E+02  2.29255287273800E+02
(PID.TID 0000.0001)                    cg2d_init_res =    2.74856922252730E+00
(PID.TID 0000.0001)                       cg2d_iters =    69
(PID.TID 0000.0001)                         cg2d_res =    5.38174414186505E-07
(PID.TID 0000.0001) // =======================================================
(PID.TID 0000.0001) // Begin MONITOR dynamic field statistics
(PID.TID 0000.0001) // =======================================================
(PID.TID 0000.0001) %MON time_tsnumber                =                 36002
(PID.TID 0000.0001) %MON time_secondsf                =   3.1105728000000E+09
(PID.TID 0000.0001) %MON dynstat_eta_max              =   7.3253161007935E-01
(PID.TID 0000.0001) %MON dynstat_eta_min              =  -1.1985096656228E+01
(PID.TID 0000.0001) %MON dynstat_eta_mean             =  -5.8174733708411E-01
(PID.TID 0000.0001) %MON dynstat_eta_sd               =   1.7022747286473E+00
(PID.TID 0000.0001) %MON dynstat_eta_del2             =   2.1086598003855E-02
(PID.TID 0000.0001) %MON dynstat_uvel_max             =   1.7329420055438E-01
(PID.TID 0000.0001) %MON dynstat_uvel_min             =  -2.7081627038561E-01
(PID.TID 0000.0001) %MON dynstat_uvel_mean            =  -5.2836325746849E-04
(PID.TID 0000.0001) %MON dynstat_uvel_sd              =   1.2988528968034E-02
(PID.TID 0000.0001) %MON dynstat_uvel_del2            =   5.8802705591698E-05
(PID.TID 0000.0001) %MON dynstat_vvel_max             =   1.9398833968459E-01
(PID.TID 0000.0001) %MON dynstat_vvel_min             =  -2.1072375648725E-01
(PID.TID 0000.0001) %MON dynstat_vvel_mean            =  -4.2452102888041E-04
(PID.TID 0000.0001) %MON dynstat_vvel_sd              =   1.3476491636955E-02
(PID.TID 0000.0001) %MON dynstat_vvel_del2            =   5.6319623357872E-05
(PID.TID 0000.0001) %MON dynstat_wvel_max             =   8.3878461481535E-05
(PID.TID 0000.0001) %MON dynstat_wvel_min             =  -1.7741686259373E-04
(PID.TID 0000.0001) %MON dynstat_wvel_mean            =  -1.2005590011752E-09
(PID.TID 0000.0001) %MON dynstat_wvel_sd              =   4.6256908534708E-06
(PID.TID 0000.0001) %MON dynstat_wvel_del2            =   4.0321202870404E-08
(PID.TID 0000.0001) %MON dynstat_theta_max            =   3.0124603881783E+01
(PID.TID 0000.0001) %MON dynstat_theta_min            =  -3.3553040928036E+00
(PID.TID 0000.0001) %MON dynstat_theta_mean           =   3.5028877722118E+00
(PID.TID 0000.0001) %MON dynstat_theta_sd             =   4.7490129239364E+00
(PID.TID 0000.0001) %MON dynstat_theta_del2           =   2.9390884590843E-03
(PID.TID 0000.0001) %MON dynstat_salt_max             =   4.0820622830092E+01
(PID.TID 0000.0001) %MON dynstat_salt_min             =   1.8031424151960E+01
(PID.TID 0000.0001) %MON dynstat_salt_mean            =   3.4756104653064E+01
(PID.TID 0000.0001) %MON dynstat_salt_sd              =   5.1188354784025E-01
(PID.TID 0000.0001) %MON dynstat_salt_del2            =   8.3859065554986E-04
(PID.TID 0000.0001) %MON forcing_qnet_max             =   7.7879138926304E+02
(PID.TID 0000.0001) %MON forcing_qnet_min             =  -2.4011440766621E+02
(PID.TID 0000.0001) %MON forcing_qnet_mean            =  -4.7129296618129E+00
(PID.TID 0000.0001) %MON forcing_qnet_sd              =   1.2148791859561E+02
(PID.TID 0000.0001) %MON forcing_qnet_del2            =   1.0444755851419E+00
(PID.TID 0000.0001) %MON forcing_qsw_max              =  -0.0000000000000E+00
(PID.TID 0000.0001) %MON forcing_qsw_min              =  -3.4175257854448E+02
(PID.TID 0000.0001) %MON forcing_qsw_mean             =  -1.8646518663948E+02
(PID.TID 0000.0001) %MON forcing_qsw_sd               =   8.0799357798136E+01
(PID.TID 0000.0001) %MON forcing_qsw_del2             =   6.7576898575840E-01
(PID.TID 0000.0001) %MON forcing_empmr_max            =   5.9715014201790E-04
(PID.TID 0000.0001) %MON forcing_empmr_min            =  -3.9950649698417E-04
(PID.TID 0000.0001) %MON forcing_empmr_mean           =   1.5588730586570E-07
(PID.TID 0000.0001) %MON forcing_empmr_sd             =   5.5506322860024E-05
(PID.TID 0000.0001) %MON forcing_empmr_del2           =   1.0594684912251E-06
(PID.TID 0000.0001) %MON forcing_fu_max               =   2.4755808644372E-01
(PID.TID 0000.0001) %MON forcing_fu_min               =  -2.0607770640355E-01
(PID.TID 0000.0001) %MON forcing_fu_mean              =  -4.5044017291293E-03
(PID.TID 0000.0001) %MON forcing_fu_sd                =   6.3947166868600E-02
(PID.TID 0000.0001) %MON forcing_fu_del2              =   2.0524826999043E-04
(PID.TID 0000.0001) %MON forcing_fv_max               =   2.5549422200851E-01
(PID.TID 0000.0001) %MON forcing_fv_min               =  -3.2770782795392E-01
(PID.TID 0000.0001) %MON forcing_fv_mean              =  -1.3688427064785E-02
(PID.TID 0000.0001) %MON forcing_fv_sd                =   7.5192943168452E-02
(PID.TID 0000.0001) %MON forcing_fv_del2              =   2.3392164091250E-04
(PID.TID 0000.0001) %MON advcfl_uvel_max              =   7.6808631310295E-02
(PID.TID 0000.0001) %MON advcfl_vvel_max              =   8.4556784319231E-02
(PID.TID 0000.0001) %MON advcfl_wvel_max              =   5.7844592181502E-02
(PID.TID 0000.0001) %MON advcfl_W_hf_max              =   6.5305822431771E-02
(PID.TID 0000.0001) %MON pe_b_mean                    =  -1.9270086429789E-03
(PID.TID 0000.0001) %MON ke_max                       =   3.6710666120141E-02
(PID.TID 0000.0001) %MON ke_mean                      =   1.6197371246320E-04
(PID.TID 0000.0001) %MON ke_vol                       =   1.3395907599575E+18
(PID.TID 0000.0001) %MON vort_r_min                   =  -1.2170150075844E-06
(PID.TID 0000.0001) %MON vort_r_max                   =   1.3705352204553E-06
(PID.TID 0000.0001) %MON vort_a_mean                  =  -2.0549865324846E-05
(PID.TID 0000.0001) %MON vort_a_sd                    =   7.5259583113972E-05
(PID.TID 0000.0001) %MON vort_p_mean                  =  -2.4787196681009E-05
(PID.TID 0000.0001) %MON vort_p_sd                    =   1.2817293504035E-04
(PID.TID 0000.0001) %MON surfExpan_theta_mean         =   8.5120892413519E-08
(PID.TID 0000.0001) %MON surfExpan_salt_mean          =   1.8910287712474E-08
(PID.TID 0000.0001) // =======================================================
(PID.TID 0000.0001) // End MONITOR dynamic field statistics
(PID.TID 0000.0001) // =======================================================
(PID.TID 0000.0001) // =======================================================
(PID.TID 0000.0001) // Begin MONITOR Therm.SeaIce statistics
(PID.TID 0000.0001) // =======================================================
(PID.TID 0000.0001) %MON thSI_time_sec                =   3.1105728000000E+09
(PID.TID 0000.0001) %MON thSI_Ice_Area_G              =   2.4756287095638E+13
(PID.TID 0000.0001) %MON thSI_Ice_Area_S              =   1.1991786953274E+13
(PID.TID 0000.0001) %MON thSI_Ice_Area_N              =   1.2764500142364E+13
(PID.TID 0000.0001) %MON thSI_IceH_ave_G              =   4.5821668551497E+00
(PID.TID 0000.0001) %MON thSI_IceH_ave_S              =   5.7074957131018E+00
(PID.TID 0000.0001) %MON thSI_IceH_ave_N              =   3.5249610291145E+00
(PID.TID 0000.0001) %MON thSI_IceH_max_S              =   1.0000000000000E+01
(PID.TID 0000.0001) %MON thSI_IceH_max_N              =   1.0000000000000E+01
(PID.TID 0000.0001) %MON thSI_SnwH_ave_G              =   1.0529442471447E+00
(PID.TID 0000.0001) %MON thSI_SnwH_ave_S              =   1.7979823388998E+00
(PID.TID 0000.0001) %MON thSI_SnwH_ave_N              =   3.5300786352167E-01
(PID.TID 0000.0001) %MON thSI_SnwH_max_S              =   4.0952680553207E+00
(PID.TID 0000.0001) %MON thSI_SnwH_max_N              =   4.1020845284674E+00
(PID.TID 0000.0001) %MON thSI_Tsrf_ave_G              =  -1.6871695102498E+01
(PID.TID 0000.0001) %MON thSI_Tsrf_ave_S              =  -1.2634335888066E-01
(PID.TID 0000.0001) %MON thSI_Tsrf_ave_N              =  -3.2603348385234E+01
(PID.TID 0000.0001) %MON thSI_Tsrf_min_S              =  -5.3207170352752E+00
(PID.TID 0000.0001) %MON thSI_Tsrf_min_N              =  -4.6355041687304E+01
(PID.TID 0000.0001) %MON thSI_Tsrf_max_S              =   0.0000000000000E+00
(PID.TID 0000.0001) %MON thSI_Tsrf_max_N              =  -7.6783592696535E+00
(PID.TID 0000.0001) %MON thSI_Tic1_ave_G              =  -8.3768872906424E+00
(PID.TID 0000.0001) %MON thSI_Tic1_ave_S              =  -5.1376630565918E+00
(PID.TID 0000.0001) %MON thSI_Tic1_ave_N              =  -1.3304225564247E+01
(PID.TID 0000.0001) %MON thSI_Tic1_min_S              =  -1.6689794567922E+01
(PID.TID 0000.0001) %MON thSI_Tic1_min_N              =  -2.0726706592963E+01
(PID.TID 0000.0001) %MON thSI_Tic1_max_S              =  -2.2651862665280E-01
(PID.TID 0000.0001) %MON thSI_Tic1_max_N              =  -6.4311679079617E-01
(PID.TID 0000.0001) %MON thSI_Tic2_ave_G              =  -3.7793621073559E+00
(PID.TID 0000.0001) %MON thSI_Tic2_ave_S              =  -3.1002033571886E+00
(PID.TID 0000.0001) %MON thSI_Tic2_ave_N              =  -4.8124628320218E+00
(PID.TID 0000.0001) %MON thSI_Tic2_min_S              =  -8.7485368036072E+00
(PID.TID 0000.0001) %MON thSI_Tic2_min_N              =  -7.4594173056955E+00
(PID.TID 0000.0001) %MON thSI_Tic2_max_S              =  -1.1905054591778E+00
(PID.TID 0000.0001) %MON thSI_Tic2_max_N              =  -1.1847736548492E+00
(PID.TID 0000.0001) %MON thSI_TotEnerg_G              =  -3.8083631999494E+22
(PID.TID 0000.0001) // =======================================================
(PID.TID 0000.0001) // End MONITOR Therm.SeaIce statistics
(PID.TID 0000.0001) // =======================================================
 Computing Diagnostic #     23  ETAN         Counter:       1   Parms: SM      M1      
 Compute Stats, Diag. #     23  ETAN      vol(   0 ): 3.639E+14  Parms: SM      M1      
 Compute Stats, Diag. #     26  THETA     vol(   0 ): 1.340E+18  Parms: SMR     MR      
 Compute Stats, Diag. #     27  SALT      vol(   0 ): 1.340E+18  Parms: SMR     MR      
 BULKF_FIELDS_LOAD,     36002 : iP,iLd,i0,i1=   12    1   12    1 ; Wght=  0.4333333333  0.5666666667
 EXTERNAL_FIELDS_LOAD,     36002 : iP,iLd,i0,i1=   12    1   12    1 ; Wght=  0.4333333333  0.5666666667
 cg2d: Sum(rhs),rhsMax =   3.91306455615880E+02  2.29299174421352E+02
(PID.TID 0000.0001)                    cg2d_init_res =    6.05880611352318E+00
(PID.TID 0000.0001)                       cg2d_iters =    69
(PID.TID 0000.0001)                         cg2d_res =    5.26814265625977E-07
(PID.TID 0000.0001) // =======================================================
(PID.TID 0000.0001) // Begin MONITOR dynamic field statistics
(PID.TID 0000.0001) // =======================================================
(PID.TID 0000.0001) %MON time_tsnumber                =                 36003
(PID.TID 0000.0001) %MON time_secondsf                =   3.1106592000000E+09
(PID.TID 0000.0001) %MON dynstat_eta_max              =   7.3125883443507E-01
(PID.TID 0000.0001) %MON dynstat_eta_min              =  -1.1983414707477E+01
(PID.TID 0000.0001) %MON dynstat_eta_mean             =  -5.8200692972729E-01
(PID.TID 0000.0001) %MON dynstat_eta_sd               =   1.7027138629364E+00
(PID.TID 0000.0001) %MON dynstat_eta_del2             =   2.1151932835436E-02
(PID.TID 0000.0001) %MON dynstat_uvel_max             =   1.7366837431550E-01
(PID.TID 0000.0001) %MON dynstat_uvel_min             =  -2.7047805389568E-01
(PID.TID 0000.0001) %MON dynstat_uvel_mean            =  -5.2788824704893E-04
(PID.TID 0000.0001) %MON dynstat_uvel_sd              =   1.2987419729426E-02
(PID.TID 0000.0001) %MON dynstat_uvel_del2            =   5.8781178491702E-05
(PID.TID 0000.0001) %MON dynstat_vvel_max             =   1.9435149230259E-01
(PID.TID 0000.0001) %MON dynstat_vvel_min             =  -2.1082634112725E-01
(PID.TID 0000.0001) %MON dynstat_vvel_mean            =  -4.2436193639557E-04
(PID.TID 0000.0001) %MON dynstat_vvel_sd              =   1.3478041093843E-02
(PID.TID 0000.0001) %MON dynstat_vvel_del2            =   5.6276318686640E-05
(PID.TID 0000.0001) %MON dynstat_wvel_max             =   8.3856395755262E-05
(PID.TID 0000.0001) %MON dynstat_wvel_min             =  -1.7771419054830E-04
(PID.TID 0000.0001) %MON dynstat_wvel_mean            =  -6.4726096824155E-10
(PID.TID 0000.0001) %MON dynstat_wvel_sd              =   4.6253268015397E-06
(PID.TID 0000.0001) %MON dynstat_wvel_del2            =   4.0333590464498E-08
(PID.TID 0000.0001) %MON dynstat_theta_max            =   3.0104705412740E+01
(PID.TID 0000.0001) %MON dynstat_theta_min            =  -3.3518898918092E+00
(PID.TID 0000.0001) %MON dynstat_theta_mean           =   3.5029533028979E+00
(PID.TID 0000.0001) %MON dynstat_theta_sd             =   4.7490564680363E+00
(PID.TID 0000.0001) %MON dynstat_theta_del2           =   2.9416555939264E-03
(PID.TID 0000.0001) %MON dynstat_salt_max             =   4.0822995279710E+01
(PID.TID 0000.0001) %MON dynstat_salt_min             =   1.8032025269787E+01
(PID.TID 0000.0001) %MON dynstat_salt_mean            =   3.4756107660098E+01
(PID.TID 0000.0001) %MON dynstat_salt_sd              =   5.1186958116243E-01
(PID.TID 0000.0001) %MON dynstat_salt_del2            =   8.3919025121196E-04
(PID.TID 0000.0001) %MON forcing_qnet_max             =   7.8157109382611E+02
(PID.TID 0000.0001) %MON forcing_qnet_min             =  -3.0899244725358E+03
(PID.TID 0000.0001) %MON forcing_qnet_mean            =  -5.9485287527251E+00
(PID.TID 0000.0001) %MON forcing_qnet_sd              =   1.3220593665815E+02
(PID.TID 0000.0001) %MON forcing_qnet_del2            =   2.0188713601689E+00
(PID.TID 0000.0001) %MON forcing_qsw_max              =  -0.0000000000000E+00
(PID.TID 0000.0001) %MON forcing_qsw_min              =  -3.4154853589728E+02
(PID.TID 0000.0001) %MON forcing_qsw_mean             =  -1.8648590884098E+02
(PID.TID 0000.0001) %MON forcing_qsw_sd               =   8.0655748793417E+01
(PID.TID 0000.0001) %MON forcing_qsw_del2             =   6.7468620274301E-01
(PID.TID 0000.0001) %MON forcing_empmr_max            =   9.1468814290636E-03
(PID.TID 0000.0001) %MON forcing_empmr_min            =  -3.9320160664642E-04
(PID.TID 0000.0001) %MON forcing_empmr_mean           =   3.1097035380527E-06
(PID.TID 0000.0001) %MON forcing_empmr_sd             =   1.6474619438148E-04
(PID.TID 0000.0001) %MON forcing_empmr_del2           =   5.2072804454890E-06
(PID.TID 0000.0001) %MON forcing_fu_max               =   2.4751003717351E-01
(PID.TID 0000.0001) %MON forcing_fu_min               =  -2.0922350306190E-01
(PID.TID 0000.0001) %MON forcing_fu_mean              =  -4.4609227933959E-03
(PID.TID 0000.0001) %MON forcing_fu_sd                =   6.3970406478471E-02
(PID.TID 0000.0001) %MON forcing_fu_del2              =   2.0564087338622E-04
(PID.TID 0000.0001) %MON forcing_fv_max               =   2.5817746358114E-01
(PID.TID 0000.0001) %MON forcing_fv_min               =  -3.2849573188785E-01
(PID.TID 0000.0001) %MON forcing_fv_mean              =  -1.3692352610712E-02
(PID.TID 0000.0001) %MON forcing_fv_sd                =   7.5242720295677E-02
(PID.TID 0000.0001) %MON forcing_fv_del2              =   2.3430754301775E-04
(PID.TID 0000.0001) %MON advcfl_uvel_max              =   7.6712706698229E-02
(PID.TID 0000.0001) %MON advcfl_vvel_max              =   8.4715077429249E-02
(PID.TID 0000.0001) %MON advcfl_wvel_max              =   5.7941532314617E-02
(PID.TID 0000.0001) %MON advcfl_W_hf_max              =   6.4957855680371E-02
(PID.TID 0000.0001) %MON pe_b_mean                    =  -1.9300197121017E-03
(PID.TID 0000.0001) %MON ke_max                       =   3.6601520276822E-02
(PID.TID 0000.0001) %MON ke_mean                      =   1.6197956137042E-04
(PID.TID 0000.0001) %MON ke_vol                       =   1.3395907552222E+18
(PID.TID 0000.0001) %MON vort_r_min                   =  -1.2207759524158E-06
(PID.TID 0000.0001) %MON vort_r_max                   =   1.3733169678685E-06
(PID.TID 0000.0001) %MON vort_a_mean                  =  -2.0549865324846E-05
(PID.TID 0000.0001) %MON vort_a_sd                    =   7.5259582970957E-05
(PID.TID 0000.0001) %MON vort_p_mean                  =  -2.4787196249291E-05
(PID.TID 0000.0001) %MON vort_p_sd                    =   1.2817294256807E-04
(PID.TID 0000.0001) %MON surfExpan_theta_mean         =   7.0416132568217E-08
(PID.TID 0000.0001) %MON surfExpan_salt_mean          =   1.4810466327684E-08
(PID.TID 0000.0001) // =======================================================
(PID.TID 0000.0001) // End MONITOR dynamic field statistics
(PID.TID 0000.0001) // =======================================================
(PID.TID 0000.0001) // =======================================================
(PID.TID 0000.0001) // Begin MONITOR Therm.SeaIce statistics
(PID.TID 0000.0001) // =======================================================
(PID.TID 0000.0001) %MON thSI_time_sec                =   3.1106592000000E+09
(PID.TID 0000.0001) %MON thSI_Ice_Area_G              =   2.4763718933102E+13
(PID.TID 0000.0001) %MON thSI_Ice_Area_S              =   1.1938341959520E+13
(PID.TID 0000.0001) %MON thSI_Ice_Area_N              =   1.2825376973583E+13
(PID.TID 0000.0001) %MON thSI_IceH_ave_G              =   4.5857489983937E+00
(PID.TID 0000.0001) %MON thSI_IceH_ave_S              =   5.7260539917172E+00
(PID.TID 0000.0001) %MON thSI_IceH_ave_N              =   3.5243103384242E+00
(PID.TID 0000.0001) %MON thSI_IceH_max_S              =   1.0000000000000E+01
(PID.TID 0000.0001) %MON thSI_IceH_max_N              =   1.0000000000000E+01
(PID.TID 0000.0001) %MON thSI_SnwH_ave_G              =   1.0481637715435E+00
(PID.TID 0000.0001) %MON thSI_SnwH_ave_S              =   1.7937021430074E+00
(PID.TID 0000.0001) %MON thSI_SnwH_ave_N              =   3.5418869066966E-01
(PID.TID 0000.0001) %MON thSI_SnwH_max_S              =   4.0939886006182E+00
(PID.TID 0000.0001) %MON thSI_SnwH_max_N              =   4.1023289741769E+00
(PID.TID 0000.0001) %MON thSI_Tsrf_ave_G              =  -1.6948698431707E+01
(PID.TID 0000.0001) %MON thSI_Tsrf_ave_S              =  -1.0911650583039E-01
(PID.TID 0000.0001) %MON thSI_Tsrf_ave_N              =  -3.2623612931341E+01
(PID.TID 0000.0001) %MON thSI_Tsrf_min_S              =  -5.3370576572177E+00
(PID.TID 0000.0001) %MON thSI_Tsrf_min_N              =  -4.6469445796248E+01
(PID.TID 0000.0001) %MON thSI_Tsrf_max_S              =   0.0000000000000E+00
(PID.TID 0000.0001) %MON thSI_Tsrf_max_N              =  -1.8310283794535E+00
(PID.TID 0000.0001) %MON thSI_Tic1_ave_G              =  -8.3963071898077E+00
(PID.TID 0000.0001) %MON thSI_Tic1_ave_S              =  -5.1158340072907E+00
(PID.TID 0000.0001) %MON thSI_Tic1_ave_N              =  -1.3357563475347E+01
(PID.TID 0000.0001) %MON thSI_Tic1_min_S              =  -1.6541939746006E+01
(PID.TID 0000.0001) %MON thSI_Tic1_min_N              =  -2.0804072998701E+01
(PID.TID 0000.0001) %MON thSI_Tic1_max_S              =  -2.2966489130548E-01
(PID.TID 0000.0001) %MON thSI_Tic1_max_N              =  -6.5768702938382E-01
(PID.TID 0000.0001) %MON thSI_Tic2_ave_G              =  -3.7898206564343E+00
(PID.TID 0000.0001) %MON thSI_Tic2_ave_S              =  -3.0964921609529E+00
(PID.TID 0000.0001) %MON thSI_Tic2_ave_N              =  -4.8383829109536E+00
(PID.TID 0000.0001) %MON thSI_Tic2_min_S              =  -8.7237674416888E+00
(PID.TID 0000.0001) %MON thSI_Tic2_min_N              =  -7.4973446069576E+00
(PID.TID 0000.0001) %MON thSI_Tic2_max_S              =  -1.1903014876697E+00
(PID.TID 0000.0001) %MON thSI_Tic2_max_N              =  -1.1960830318324E+00
(PID.TID 0000.0001) %MON thSI_TotEnerg_G              =  -3.8112830281963E+22
(PID.TID 0000.0001) // =======================================================
(PID.TID 0000.0001) // End MONITOR Therm.SeaIce statistics
(PID.TID 0000.0001) // =======================================================
 BULKF_FIELDS_LOAD,     36003 : iP,iLd,i0,i1=   12    1   12    1 ; Wght=  0.4000000000  0.6000000000
 EXTERNAL_FIELDS_LOAD,     36003 : iP,iLd,i0,i1=   12    1   12    1 ; Wght=  0.4000000000  0.6000000000
 cg2d: Sum(rhs),rhsMax =   3.91399718147961E+02  2.29353133831488E+02
(PID.TID 0000.0001)                    cg2d_init_res =    4.24480563549837E+00
(PID.TID 0000.0001)                       cg2d_iters =    68
(PID.TID 0000.0001)                         cg2d_res =    5.39090328493692E-07
(PID.TID 0000.0001) // =======================================================
(PID.TID 0000.0001) // Begin MONITOR dynamic field statistics
(PID.TID 0000.0001) // =======================================================
(PID.TID 0000.0001) %MON time_tsnumber                =                 36004
(PID.TID 0000.0001) %MON time_secondsf                =   3.1107456000000E+09
(PID.TID 0000.0001) %MON dynstat_eta_max              =   7.3006737308895E-01
(PID.TID 0000.0001) %MON dynstat_eta_min              =  -1.1981545912185E+01
(PID.TID 0000.0001) %MON dynstat_eta_mean             =  -5.8214564310443E-01
(PID.TID 0000.0001) %MON dynstat_eta_sd               =   1.7027252324963E+00
(PID.TID 0000.0001) %MON dynstat_eta_del2             =   2.1196826163463E-02
(PID.TID 0000.0001) %MON dynstat_uvel_max             =   1.7397922711869E-01
(PID.TID 0000.0001) %MON dynstat_uvel_min             =  -2.7012825551943E-01
(PID.TID 0000.0001) %MON dynstat_uvel_mean            =  -5.2730296902907E-04
(PID.TID 0000.0001) %MON dynstat_uvel_sd              =   1.2985995044578E-02
(PID.TID 0000.0001) %MON dynstat_uvel_del2            =   5.8757833944237E-05
(PID.TID 0000.0001) %MON dynstat_vvel_max             =   1.9465091944999E-01
(PID.TID 0000.0001) %MON dynstat_vvel_min             =  -2.1092134413283E-01
(PID.TID 0000.0001) %MON dynstat_vvel_mean            =  -4.2414751622987E-04
(PID.TID 0000.0001) %MON dynstat_vvel_sd              =   1.3479393260685E-02
(PID.TID 0000.0001) %MON dynstat_vvel_del2            =   5.6233996446099E-05
(PID.TID 0000.0001) %MON dynstat_wvel_max             =   8.3910409652526E-05
(PID.TID 0000.0001) %MON dynstat_wvel_min             =  -1.7794292280729E-04
(PID.TID 0000.0001) %MON dynstat_wvel_mean            =  -8.6206822599754E-10
(PID.TID 0000.0001) %MON dynstat_wvel_sd              =   4.6243834897907E-06
(PID.TID 0000.0001) %MON dynstat_wvel_del2            =   4.0332213962085E-08
(PID.TID 0000.0001) %MON dynstat_theta_max            =   3.0084398509905E+01
(PID.TID 0000.0001) %MON dynstat_theta_min            =  -3.3484357261618E+00
(PID.TID 0000.0001) %MON dynstat_theta_mean           =   3.5030174962348E+00
(PID.TID 0000.0001) %MON dynstat_theta_sd             =   4.7491143509566E+00
(PID.TID 0000.0001) %MON dynstat_theta_del2           =   2.9440076489580E-03
(PID.TID 0000.0001) %MON dynstat_salt_max             =   4.0825218754640E+01
(PID.TID 0000.0001) %MON dynstat_salt_min             =   1.8032613372549E+01
(PID.TID 0000.0001) %MON dynstat_salt_mean            =   3.4756109580431E+01
(PID.TID 0000.0001) %MON dynstat_salt_sd              =   5.1185921127911E-01
(PID.TID 0000.0001) %MON dynstat_salt_del2            =   8.3935403878311E-04
(PID.TID 0000.0001) %MON forcing_qnet_max             =   7.8344426637488E+02
(PID.TID 0000.0001) %MON forcing_qnet_min             =  -1.7555154235862E+03
(PID.TID 0000.0001) %MON forcing_qnet_mean            =  -5.6787878547816E+00
(PID.TID 0000.0001) %MON forcing_qnet_sd              =   1.2476615619485E+02
(PID.TID 0000.0001) %MON forcing_qnet_del2            =   1.4396089435102E+00
(PID.TID 0000.0001) %MON forcing_qsw_max              =  -0.0000000000000E+00
(PID.TID 0000.0001) %MON forcing_qsw_min              =  -3.4134449325008E+02
(PID.TID 0000.0001) %MON forcing_qsw_mean             =  -1.8650863915836E+02
(PID.TID 0000.0001) %MON forcing_qsw_sd               =   8.0514169021953E+01
(PID.TID 0000.0001) %MON forcing_qsw_del2             =   6.7427349571541E-01
(PID.TID 0000.0001) %MON forcing_empmr_max            =   5.1962577193667E-03
(PID.TID 0000.0001) %MON forcing_empmr_min            =  -3.8540744856639E-04
(PID.TID 0000.0001) %MON forcing_empmr_mean           =   1.6616706636520E-06
(PID.TID 0000.0001) %MON forcing_empmr_sd             =   1.0272085715391E-04
(PID.TID 0000.0001) %MON forcing_empmr_del2           =   3.0746311502313E-06
(PID.TID 0000.0001) %MON forcing_fu_max               =   2.4746198790331E-01
(PID.TID 0000.0001) %MON forcing_fu_min               =  -2.1236929972025E-01
(PID.TID 0000.0001) %MON forcing_fu_mean              =  -4.4174438576624E-03
(PID.TID 0000.0001) %MON forcing_fu_sd                =   6.4007100989353E-02
(PID.TID 0000.0001) %MON forcing_fu_del2              =   2.0627372714610E-04
(PID.TID 0000.0001) %MON forcing_fv_max               =   2.6086070515377E-01
(PID.TID 0000.0001) %MON forcing_fv_min               =  -3.2928363582178E-01
(PID.TID 0000.0001) %MON forcing_fv_mean              =  -1.3696278156640E-02
(PID.TID 0000.0001) %MON forcing_fv_sd                =   7.5302823094907E-02
(PID.TID 0000.0001) %MON forcing_fv_del2              =   2.3489534074143E-04
(PID.TID 0000.0001) %MON advcfl_uvel_max              =   7.6613497243508E-02
(PID.TID 0000.0001) %MON advcfl_vvel_max              =   8.4845593504406E-02
(PID.TID 0000.0001) %MON advcfl_wvel_max              =   5.8016107662453E-02
(PID.TID 0000.0001) %MON advcfl_W_hf_max              =   6.4574733433930E-02
(PID.TID 0000.0001) %MON pe_b_mean                    =  -1.9314028114036E-03
(PID.TID 0000.0001) %MON ke_max                       =   3.6489692671875E-02
(PID.TID 0000.0001) %MON ke_mean                      =   1.6197911219855E-04
(PID.TID 0000.0001) %MON ke_vol                       =   1.3395906607599E+18
(PID.TID 0000.0001) %MON vort_r_min                   =  -1.2247993313622E-06
(PID.TID 0000.0001) %MON vort_r_max                   =   1.3763189805282E-06
(PID.TID 0000.0001) %MON vort_a_mean                  =  -2.0549865324846E-05
(PID.TID 0000.0001) %MON vort_a_sd                    =   7.5259582848045E-05
(PID.TID 0000.0001) %MON vort_p_mean                  =  -2.4787197131540E-05
(PID.TID 0000.0001) %MON vort_p_sd                    =   1.2817297555067E-04
(PID.TID 0000.0001) %MON surfExpan_theta_mean         =   7.5114020395401E-08
(PID.TID 0000.0001) %MON surfExpan_salt_mean          =   1.6693595823060E-08
(PID.TID 0000.0001) // =======================================================
(PID.TID 0000.0001) // End MONITOR dynamic field statistics
(PID.TID 0000.0001) // =======================================================
(PID.TID 0000.0001) // =======================================================
(PID.TID 0000.0001) // Begin MONITOR Therm.SeaIce statistics
(PID.TID 0000.0001) // =======================================================
(PID.TID 0000.0001) %MON thSI_time_sec                =   3.1107456000000E+09
(PID.TID 0000.0001) %MON thSI_Ice_Area_G              =   2.4781216408524E+13
(PID.TID 0000.0001) %MON thSI_Ice_Area_S              =   1.1893663131389E+13
(PID.TID 0000.0001) %MON thSI_Ice_Area_N              =   1.2887553277135E+13
(PID.TID 0000.0001) %MON thSI_IceH_ave_G              =   4.5854417857360E+00
(PID.TID 0000.0001) %MON thSI_IceH_ave_S              =   5.7406892643133E+00
(PID.TID 0000.0001) %MON thSI_IceH_ave_N              =   3.5192871753056E+00
(PID.TID 0000.0001) %MON thSI_IceH_max_S              =   1.0000000000000E+01
(PID.TID 0000.0001) %MON thSI_IceH_max_N              =   1.0000000000000E+01
(PID.TID 0000.0001) %MON thSI_SnwH_ave_G              =   1.0430866054190E+00
(PID.TID 0000.0001) %MON thSI_SnwH_ave_S              =   1.7882918452050E+00
(PID.TID 0000.0001) %MON thSI_SnwH_ave_N              =   3.5535171151282E-01
(PID.TID 0000.0001) %MON thSI_SnwH_max_S              =   4.0939945091859E+00
(PID.TID 0000.0001) %MON thSI_SnwH_max_N              =   4.1021821696742E+00
(PID.TID 0000.0001) %MON thSI_Tsrf_ave_G              =  -1.7035508885969E+01
(PID.TID 0000.0001) %MON thSI_Tsrf_ave_S              =  -1.2969658282115E-01
(PID.TID 0000.0001) %MON thSI_Tsrf_ave_N              =  -3.2637542272157E+01
(PID.TID 0000.0001) %MON thSI_Tsrf_min_S              =  -5.3533619611983E+00
(PID.TID 0000.0001) %MON thSI_Tsrf_min_N              =  -4.6583877672458E+01
(PID.TID 0000.0001) %MON thSI_Tsrf_max_S              =   0.0000000000000E+00
(PID.TID 0000.0001) %MON thSI_Tsrf_max_N              =  -5.8003998489518E+00
(PID.TID 0000.0001) %MON thSI_Tic1_ave_G              =  -8.4161535993031E+00
(PID.TID 0000.0001) %MON thSI_Tic1_ave_S              =  -5.0890570028074E+00
(PID.TID 0000.0001) %MON thSI_Tic1_ave_N              =  -1.3424794583301E+01
(PID.TID 0000.0001) %MON thSI_Tic1_min_S              =  -1.6056755007378E+01
(PID.TID 0000.0001) %MON thSI_Tic1_min_N              =  -2.0878819418861E+01
(PID.TID 0000.0001) %MON thSI_Tic1_max_S              =  -2.1348011771235E-01
(PID.TID 0000.0001) %MON thSI_Tic1_max_N              =  -6.7286382857683E-01
(PID.TID 0000.0001) %MON thSI_Tic2_ave_G              =  -3.8013073705705E+00
(PID.TID 0000.0001) %MON thSI_Tic2_ave_S              =  -3.0927039032406E+00
(PID.TID 0000.0001) %MON thSI_Tic2_ave_N              =  -4.8680453701854E+00
(PID.TID 0000.0001) %MON thSI_Tic2_min_S              =  -8.6974973247033E+00
(PID.TID 0000.0001) %MON thSI_Tic2_min_N              =  -7.5341002436933E+00
(PID.TID 0000.0001) %MON thSI_Tic2_max_S              =  -1.1883317511271E+00
(PID.TID 0000.0001) %MON thSI_Tic2_max_N              =  -1.2098002983673E+00
(PID.TID 0000.0001) %MON thSI_TotEnerg_G              =  -3.8126518597806E+22
(PID.TID 0000.0001) // =======================================================
(PID.TID 0000.0001) // End MONITOR Therm.SeaIce statistics
(PID.TID 0000.0001) // =======================================================
 BULKF_FIELDS_LOAD,     36004 : iP,iLd,i0,i1=   12    1   12    1 ; Wght=  0.3666666667  0.6333333333
 EXTERNAL_FIELDS_LOAD,     36004 : iP,iLd,i0,i1=   12    1   12    1 ; Wght=  0.3666666667  0.6333333333
 cg2d: Sum(rhs),rhsMax =   3.91464681193493E+02  2.29415843106678E+02
(PID.TID 0000.0001)                    cg2d_init_res =    3.32097205259082E+00
(PID.TID 0000.0001)                       cg2d_iters =    67
(PID.TID 0000.0001)                         cg2d_res =    5.58497237361088E-07
(PID.TID 0000.0001) // =======================================================
(PID.TID 0000.0001) // Begin MONITOR dynamic field statistics
(PID.TID 0000.0001) // =======================================================
(PID.TID 0000.0001) %MON time_tsnumber                =                 36005
(PID.TID 0000.0001) %MON time_secondsf                =   3.1108320000000E+09
(PID.TID 0000.0001) %MON dynstat_eta_max              =   7.2890681283847E-01
(PID.TID 0000.0001) %MON dynstat_eta_min              =  -1.1979604066779E+01
(PID.TID 0000.0001) %MON dynstat_eta_mean             =  -5.8224226543747E-01
(PID.TID 0000.0001) %MON dynstat_eta_sd               =   1.7024609761052E+00
(PID.TID 0000.0001) %MON dynstat_eta_del2             =   2.1226409927161E-02
(PID.TID 0000.0001) %MON dynstat_uvel_max             =   1.7422409787378E-01
(PID.TID 0000.0001) %MON dynstat_uvel_min             =  -2.6976679325954E-01
(PID.TID 0000.0001) %MON dynstat_uvel_mean            =  -5.2669522212467E-04
(PID.TID 0000.0001) %MON dynstat_uvel_sd              =   1.2984314315138E-02
(PID.TID 0000.0001) %MON dynstat_uvel_del2            =   5.8733263830094E-05
(PID.TID 0000.0001) %MON dynstat_vvel_max             =   1.9488639023109E-01
(PID.TID 0000.0001) %MON dynstat_vvel_min             =  -2.1100894209777E-01
(PID.TID 0000.0001) %MON dynstat_vvel_mean            =  -4.2379919100276E-04
(PID.TID 0000.0001) %MON dynstat_vvel_sd              =   1.3480489249338E-02
(PID.TID 0000.0001) %MON dynstat_vvel_del2            =   5.6192949067586E-05
(PID.TID 0000.0001) %MON dynstat_wvel_max             =   8.4614302458029E-05
(PID.TID 0000.0001) %MON dynstat_wvel_min             =  -1.7810860496760E-04
(PID.TID 0000.0001) %MON dynstat_wvel_mean            =  -9.8426354096053E-10
(PID.TID 0000.0001) %MON dynstat_wvel_sd              =   4.6236585180333E-06
(PID.TID 0000.0001) %MON dynstat_wvel_del2            =   4.0333789395547E-08
(PID.TID 0000.0001) %MON dynstat_theta_max            =   3.0063765069393E+01
(PID.TID 0000.0001) %MON dynstat_theta_min            =  -3.3449481066311E+00
(PID.TID 0000.0001) %MON dynstat_theta_mean           =   3.5030821838804E+00
(PID.TID 0000.0001) %MON dynstat_theta_sd             =   4.7491821749380E+00
(PID.TID 0000.0001) %MON dynstat_theta_del2           =   2.9459751892396E-03
(PID.TID 0000.0001) %MON dynstat_salt_max             =   4.0827295711160E+01
(PID.TID 0000.0001) %MON dynstat_salt_min             =   1.8033189969385E+01
(PID.TID 0000.0001) %MON dynstat_salt_mean            =   3.4756111156115E+01
(PID.TID 0000.0001) %MON dynstat_salt_sd              =   5.1184894337280E-01
(PID.TID 0000.0001) %MON dynstat_salt_del2            =   8.3892297992691E-04
(PID.TID 0000.0001) %MON forcing_qnet_max             =   7.8364480788260E+02
(PID.TID 0000.0001) %MON forcing_qnet_min             =  -1.0231660418867E+03
(PID.TID 0000.0001) %MON forcing_qnet_mean            =  -5.6995885325689E+00
(PID.TID 0000.0001) %MON forcing_qnet_sd              =   1.2200945604863E+02
(PID.TID 0000.0001) %MON forcing_qnet_del2            =   1.1892892264100E+00
(PID.TID 0000.0001) %MON forcing_qsw_max              =  -0.0000000000000E+00
(PID.TID 0000.0001) %MON forcing_qsw_min              =  -3.4114045060289E+02
(PID.TID 0000.0001) %MON forcing_qsw_mean             =  -1.8652562707354E+02
(PID.TID 0000.0001) %MON forcing_qsw_sd               =   8.0373065843683E+01
(PID.TID 0000.0001) %MON forcing_qsw_del2             =   6.7314667307888E-01
(PID.TID 0000.0001) %MON forcing_empmr_max            =   3.0282656503183E-03
(PID.TID 0000.0001) %MON forcing_empmr_min            =  -3.7599804875947E-04
(PID.TID 0000.0001) %MON forcing_empmr_mean           =   1.1574550312200E-06
(PID.TID 0000.0001) %MON forcing_empmr_sd             =   7.5102717990951E-05
(PID.TID 0000.0001) %MON forcing_empmr_del2           =   2.0761205124834E-06
(PID.TID 0000.0001) %MON forcing_fu_max               =   2.4741393863310E-01
(PID.TID 0000.0001) %MON forcing_fu_min               =  -2.1551509637860E-01
(PID.TID 0000.0001) %MON forcing_fu_mean              =  -4.3739649219290E-03
(PID.TID 0000.0001) %MON forcing_fu_sd                =   6.4057227278753E-02
(PID.TID 0000.0001) %MON forcing_fu_del2              =   2.0714462929353E-04
(PID.TID 0000.0001) %MON forcing_fv_max               =   2.6354394672640E-01
(PID.TID 0000.0001) %MON forcing_fv_min               =  -3.3007153975572E-01
(PID.TID 0000.0001) %MON forcing_fv_mean              =  -1.3700203702567E-02
(PID.TID 0000.0001) %MON forcing_fv_sd                =   7.5373226864996E-02
(PID.TID 0000.0001) %MON forcing_fv_del2              =   2.3568352349763E-04
(PID.TID 0000.0001) %MON advcfl_uvel_max              =   7.6510979690139E-02
(PID.TID 0000.0001) %MON advcfl_vvel_max              =   8.4948231900523E-02
(PID.TID 0000.0001) %MON advcfl_wvel_max              =   5.8070126298872E-02
(PID.TID 0000.0001) %MON advcfl_W_hf_max              =   6.4157333983125E-02
(PID.TID 0000.0001) %MON pe_b_mean                    =  -1.9317608240712E-03
(PID.TID 0000.0001) %MON ke_max                       =   3.6375236008650E-02
(PID.TID 0000.0001) %MON ke_mean                      =   1.6197234534440E-04
(PID.TID 0000.0001) %MON ke_vol                       =   1.3395906102839E+18
(PID.TID 0000.0001) %MON vort_r_min                   =  -1.2290590376695E-06
(PID.TID 0000.0001) %MON vort_r_max                   =   1.3795013519880E-06
(PID.TID 0000.0001) %MON vort_a_mean                  =  -2.0549865324846E-05
(PID.TID 0000.0001) %MON vort_a_sd                    =   7.5259582744004E-05
(PID.TID 0000.0001) %MON vort_p_mean                  =  -2.4787197416577E-05
(PID.TID 0000.0001) %MON vort_p_sd                    =   1.2817299350019E-04
(PID.TID 0000.0001) %MON surfExpan_theta_mean         =   7.7332231636119E-08
(PID.TID 0000.0001) %MON surfExpan_salt_mean          =   1.7649101124035E-08
(PID.TID 0000.0001) // =======================================================
(PID.TID 0000.0001) // End MONITOR dynamic field statistics
(PID.TID 0000.0001) // =======================================================
(PID.TID 0000.0001) // =======================================================
(PID.TID 0000.0001) // Begin MONITOR Therm.SeaIce statistics
(PID.TID 0000.0001) // =======================================================
(PID.TID 0000.0001) %MON thSI_time_sec                =   3.1108320000000E+09
(PID.TID 0000.0001) %MON thSI_Ice_Area_G              =   2.4859275228614E+13
(PID.TID 0000.0001) %MON thSI_Ice_Area_S              =   1.1854624850596E+13
(PID.TID 0000.0001) %MON thSI_Ice_Area_N              =   1.3004650378018E+13
(PID.TID 0000.0001) %MON thSI_IceH_ave_G              =   4.5732842712850E+00
(PID.TID 0000.0001) %MON thSI_IceH_ave_S              =   5.7528419372575E+00
(PID.TID 0000.0001) %MON thSI_IceH_ave_N              =   3.4980370932922E+00
(PID.TID 0000.0001) %MON thSI_IceH_max_S              =   1.0000000000000E+01
(PID.TID 0000.0001) %MON thSI_IceH_max_N              =   1.0000000000000E+01
(PID.TID 0000.0001) %MON thSI_SnwH_ave_G              =   1.0355495122395E+00
(PID.TID 0000.0001) %MON thSI_SnwH_ave_S              =   1.7820857322643E+00
(PID.TID 0000.0001) %MON thSI_SnwH_ave_N              =   3.5503088478491E-01
(PID.TID 0000.0001) %MON thSI_SnwH_max_S              =   4.0938710036166E+00
(PID.TID 0000.0001) %MON thSI_SnwH_max_N              =   4.1023372304118E+00
(PID.TID 0000.0001) %MON thSI_Tsrf_ave_G              =  -1.7061749201533E+01
(PID.TID 0000.0001) %MON thSI_Tsrf_ave_S              =  -1.1189327895195E-01
(PID.TID 0000.0001) %MON thSI_Tsrf_ave_N              =  -3.2512697700195E+01
(PID.TID 0000.0001) %MON thSI_Tsrf_min_S              =  -5.3696273356671E+00
(PID.TID 0000.0001) %MON thSI_Tsrf_min_N              =  -4.6698372854414E+01
(PID.TID 0000.0001) %MON thSI_Tsrf_max_S              =   0.0000000000000E+00
(PID.TID 0000.0001) %MON thSI_Tsrf_max_N              =  -1.6927925643821E+00
(PID.TID 0000.0001) %MON thSI_Tic1_ave_G              =  -8.4392078198230E+00
(PID.TID 0000.0001) %MON thSI_Tic1_ave_S              =  -5.0679038535474E+00
(PID.TID 0000.0001) %MON thSI_Tic1_ave_N              =  -1.3493322321841E+01
(PID.TID 0000.0001) %MON thSI_Tic1_min_S              =  -1.5909889480562E+01
(PID.TID 0000.0001) %MON thSI_Tic1_min_N              =  -2.0951035713743E+01
(PID.TID 0000.0001) %MON thSI_Tic1_max_S              =  -2.0069592770997E-01
(PID.TID 0000.0001) %MON thSI_Tic1_max_N              =  -6.8868211525381E-01
(PID.TID 0000.0001) %MON thSI_Tic2_ave_G              =  -3.8125609576213E+00
(PID.TID 0000.0001) %MON thSI_Tic2_ave_S              =  -3.0888481624158E+00
(PID.TID 0000.0001) %MON thSI_Tic2_ave_N              =  -4.8975201811543E+00
(PID.TID 0000.0001) %MON thSI_Tic2_min_S              =  -8.6709856289760E+00
(PID.TID 0000.0001) %MON thSI_Tic2_min_N              =  -7.5697097302634E+00
(PID.TID 0000.0001) %MON thSI_Tic2_max_S              =  -1.1884072047442E+00
(PID.TID 0000.0001) %MON thSI_Tic2_max_N              =  -1.2242243258540E+00
(PID.TID 0000.0001) %MON thSI_TotEnerg_G              =  -3.8135387081413E+22
(PID.TID 0000.0001) // =======================================================
(PID.TID 0000.0001) // End MONITOR Therm.SeaIce statistics
(PID.TID 0000.0001) // =======================================================
 BULKF_FIELDS_LOAD,     36005 : iP,iLd,i0,i1=   12    1   12    1 ; Wght=  0.3333333333  0.6666666667
 EXTERNAL_FIELDS_LOAD,     36005 : iP,iLd,i0,i1=   12    1   12    1 ; Wght=  0.3333333333  0.6666666667
 cg2d: Sum(rhs),rhsMax =   3.91499403220172E+02  2.29487198259434E+02
(PID.TID 0000.0001)                    cg2d_init_res =    2.92896838681050E+00
(PID.TID 0000.0001)                       cg2d_iters =    67
(PID.TID 0000.0001)                         cg2d_res =    5.52939226381737E-07
(PID.TID 0000.0001) // =======================================================
(PID.TID 0000.0001) // Begin MONITOR dynamic field statistics
(PID.TID 0000.0001) // =======================================================
(PID.TID 0000.0001) %MON time_tsnumber                =                 36006
(PID.TID 0000.0001) %MON time_secondsf                =   3.1109184000000E+09
(PID.TID 0000.0001) %MON dynstat_eta_max              =   7.2774338654579E-01
(PID.TID 0000.0001) %MON dynstat_eta_min              =  -1.1977591659999E+01
(PID.TID 0000.0001) %MON dynstat_eta_mean             =  -5.8229390900187E-01
(PID.TID 0000.0001) %MON dynstat_eta_sd               =   1.7020417670734E+00
(PID.TID 0000.0001) %MON dynstat_eta_del2             =   2.1247541537405E-02
(PID.TID 0000.0001) %MON dynstat_uvel_max             =   1.7440136310855E-01
(PID.TID 0000.0001) %MON dynstat_uvel_min             =  -2.6939362810301E-01
(PID.TID 0000.0001) %MON dynstat_uvel_mean            =  -5.2611418106737E-04
(PID.TID 0000.0001) %MON dynstat_uvel_sd              =   1.2982438731111E-02
(PID.TID 0000.0001) %MON dynstat_uvel_del2            =   5.8708286199544E-05
(PID.TID 0000.0001) %MON dynstat_vvel_max             =   1.9505814595078E-01
(PID.TID 0000.0001) %MON dynstat_vvel_min             =  -2.1108931301311E-01
(PID.TID 0000.0001) %MON dynstat_vvel_mean            =  -4.2330017181886E-04
(PID.TID 0000.0001) %MON dynstat_vvel_sd              =   1.3481279915212E-02
(PID.TID 0000.0001) %MON dynstat_vvel_del2            =   5.6153260297705E-05
(PID.TID 0000.0001) %MON dynstat_wvel_max             =   8.5348942329356E-05
(PID.TID 0000.0001) %MON dynstat_wvel_min             =  -1.7821510530351E-04
(PID.TID 0000.0001) %MON dynstat_wvel_mean            =  -1.0976029460272E-09
(PID.TID 0000.0001) %MON dynstat_wvel_sd              =   4.6230663087811E-06
(PID.TID 0000.0001) %MON dynstat_wvel_del2            =   4.0336638893504E-08
(PID.TID 0000.0001) %MON dynstat_theta_max            =   3.0042876813464E+01
(PID.TID 0000.0001) %MON dynstat_theta_min            =  -3.3414282598915E+00
(PID.TID 0000.0001) %MON dynstat_theta_mean           =   3.5031477055171E+00
(PID.TID 0000.0001) %MON dynstat_theta_sd             =   4.7492600700585E+00
(PID.TID 0000.0001) %MON dynstat_theta_del2           =   2.9486978387845E-03
(PID.TID 0000.0001) %MON dynstat_salt_max             =   4.0829229743322E+01
(PID.TID 0000.0001) %MON dynstat_salt_min             =   1.8033757051256E+01
(PID.TID 0000.0001) %MON dynstat_salt_mean            =   3.4756112400933E+01
(PID.TID 0000.0001) %MON dynstat_salt_sd              =   5.1183999728558E-01
(PID.TID 0000.0001) %MON dynstat_salt_del2            =   8.3892914709141E-04
(PID.TID 0000.0001) %MON forcing_qnet_max             =   7.8711925875744E+02
(PID.TID 0000.0001) %MON forcing_qnet_min             =  -6.0486176342938E+02
(PID.TID 0000.0001) %MON forcing_qnet_mean            =  -5.7670260562773E+00
(PID.TID 0000.0001) %MON forcing_qnet_sd              =   1.2106228358356E+02
(PID.TID 0000.0001) %MON forcing_qnet_del2            =   1.1134901972707E+00
(PID.TID 0000.0001) %MON forcing_qsw_max              =  -0.0000000000000E+00
(PID.TID 0000.0001) %MON forcing_qsw_min              =  -3.4093640795569E+02
(PID.TID 0000.0001) %MON forcing_qsw_mean             =  -1.8653698849059E+02
(PID.TID 0000.0001) %MON forcing_qsw_sd               =   8.0234998604960E+01
(PID.TID 0000.0001) %MON forcing_qsw_del2             =   6.7110784917109E-01
(PID.TID 0000.0001) %MON forcing_empmr_max            =   1.7900119945518E-03
(PID.TID 0000.0001) %MON forcing_empmr_min            =  -3.6484163879428E-04
(PID.TID 0000.0001) %MON forcing_empmr_mean           =   6.1864686524042E-07
(PID.TID 0000.0001) %MON forcing_empmr_sd             =   6.2707635150314E-05
(PID.TID 0000.0001) %MON forcing_empmr_del2           =   1.5687454609845E-06
(PID.TID 0000.0001) %MON forcing_fu_max               =   2.4736588936290E-01
(PID.TID 0000.0001) %MON forcing_fu_min               =  -2.1866089303695E-01
(PID.TID 0000.0001) %MON forcing_fu_mean              =  -4.3304859861956E-03
(PID.TID 0000.0001) %MON forcing_fu_sd                =   6.4120753845867E-02
(PID.TID 0000.0001) %MON forcing_fu_del2              =   2.0825059330114E-04
(PID.TID 0000.0001) %MON forcing_fv_max               =   2.6622718829904E-01
(PID.TID 0000.0001) %MON forcing_fv_min               =  -3.3085944368965E-01
(PID.TID 0000.0001) %MON forcing_fv_mean              =  -1.3704129248494E-02
(PID.TID 0000.0001) %MON forcing_fv_sd                =   7.5453902771370E-02
(PID.TID 0000.0001) %MON forcing_fv_del2              =   2.3667008926707E-04
(PID.TID 0000.0001) %MON advcfl_uvel_max              =   7.6405142973293E-02
(PID.TID 0000.0001) %MON advcfl_vvel_max              =   8.5023097799005E-02
(PID.TID 0000.0001) %MON advcfl_wvel_max              =   5.8104849427257E-02
(PID.TID 0000.0001) %MON advcfl_W_hf_max              =   6.4189491061252E-02
(PID.TID 0000.0001) %MON pe_b_mean                    =  -1.9315099705238E-03
(PID.TID 0000.0001) %MON ke_max                       =   3.6258217139071E-02
(PID.TID 0000.0001) %MON ke_mean                      =   1.6195939414929E-04
(PID.TID 0000.0001) %MON ke_vol                       =   1.3395905751243E+18
(PID.TID 0000.0001) %MON vort_r_min                   =  -1.2335297853373E-06
(PID.TID 0000.0001) %MON vort_r_max                   =   1.3828222800702E-06
(PID.TID 0000.0001) %MON vort_a_mean                  =  -2.0549865324846E-05
(PID.TID 0000.0001) %MON vort_a_sd                    =   7.5259582657991E-05
(PID.TID 0000.0001) %MON vort_p_mean                  =  -2.4787197542033E-05
(PID.TID 0000.0001) %MON vort_p_sd                    =   1.2817300431774E-04
(PID.TID 0000.0001) %MON surfExpan_theta_mean         =   7.8574591050756E-08
(PID.TID 0000.0001) %MON surfExpan_salt_mean          =   1.8270718273664E-08
(PID.TID 0000.0001) // =======================================================
(PID.TID 0000.0001) // End MONITOR dynamic field statistics
(PID.TID 0000.0001) // =======================================================
(PID.TID 0000.0001) // =======================================================
(PID.TID 0000.0001) // Begin MONITOR Therm.SeaIce statistics
(PID.TID 0000.0001) // =======================================================
(PID.TID 0000.0001) %MON thSI_time_sec                =   3.1109184000000E+09
(PID.TID 0000.0001) %MON thSI_Ice_Area_G              =   2.4886506129040E+13
(PID.TID 0000.0001) %MON thSI_Ice_Area_S              =   1.1812503710363E+13
(PID.TID 0000.0001) %MON thSI_Ice_Area_N              =   1.3074002418677E+13
(PID.TID 0000.0001) %MON thSI_IceH_ave_G              =   4.5697966342908E+00
(PID.TID 0000.0001) %MON thSI_IceH_ave_S              =   5.7665676915180E+00
(PID.TID 0000.0001) %MON thSI_IceH_ave_N              =   3.4885009375915E+00
(PID.TID 0000.0001) %MON thSI_IceH_max_S              =   1.0000000000000E+01
(PID.TID 0000.0001) %MON thSI_IceH_max_N              =   1.0000000000000E+01
(PID.TID 0000.0001) %MON thSI_SnwH_ave_G              =   1.0302350445155E+00
(PID.TID 0000.0001) %MON thSI_SnwH_ave_S              =   1.7764038241228E+00
(PID.TID 0000.0001) %MON thSI_SnwH_ave_N              =   3.5606341784683E-01
(PID.TID 0000.0001) %MON thSI_SnwH_max_S              =   4.0937744609094E+00
(PID.TID 0000.0001) %MON thSI_SnwH_max_N              =   4.1025407759254E+00
(PID.TID 0000.0001) %MON thSI_Tsrf_ave_G              =  -1.7163466926612E+01
(PID.TID 0000.0001) %MON thSI_Tsrf_ave_S              =  -1.3314523143413E-01
(PID.TID 0000.0001) %MON thSI_Tsrf_ave_N              =  -3.2550548232761E+01
(PID.TID 0000.0001) %MON thSI_Tsrf_min_S              =  -5.3858531482044E+00
(PID.TID 0000.0001) %MON thSI_Tsrf_min_N              =  -4.6813002193887E+01
(PID.TID 0000.0001) %MON thSI_Tsrf_max_S              =   0.0000000000000E+00
(PID.TID 0000.0001) %MON thSI_Tsrf_max_N              =  -7.3479179853428E+00
(PID.TID 0000.0001) %MON thSI_Tic1_ave_G              =  -8.4607719922878E+00
(PID.TID 0000.0001) %MON thSI_Tic1_ave_S              =  -5.0419380200496E+00
(PID.TID 0000.0001) %MON thSI_Tic1_ave_N              =  -1.3566879542477E+01
(PID.TID 0000.0001) %MON thSI_Tic1_min_S              =  -1.5764668044826E+01
(PID.TID 0000.0001) %MON thSI_Tic1_min_N              =  -2.1020816476258E+01
(PID.TID 0000.0001) %MON thSI_Tic1_max_S              =  -1.9066091989945E-01
(PID.TID 0000.0001) %MON thSI_Tic1_max_N              =  -7.0517891314630E-01
(PID.TID 0000.0001) %MON thSI_Tic2_ave_G              =  -3.8241901192013E+00
(PID.TID 0000.0001) %MON thSI_Tic2_ave_S              =  -3.0850023137136E+00
(PID.TID 0000.0001) %MON thSI_Tic2_ave_N              =  -4.9281841900623E+00
(PID.TID 0000.0001) %MON thSI_Tic2_min_S              =  -8.6430485045361E+00
(PID.TID 0000.0001) %MON thSI_Tic2_min_N              =  -7.6042061907818E+00
(PID.TID 0000.0001) %MON thSI_Tic2_max_S              =  -1.1904793182890E+00
(PID.TID 0000.0001) %MON thSI_Tic2_max_N              =  -1.2394023804693E+00
(PID.TID 0000.0001) %MON thSI_TotEnerg_G              =  -3.8138774177355E+22
(PID.TID 0000.0001) // =======================================================
(PID.TID 0000.0001) // End MONITOR Therm.SeaIce statistics
(PID.TID 0000.0001) // =======================================================
 BULKF_FIELDS_LOAD,     36006 : iP,iLd,i0,i1=   12    1   12    1 ; Wght=  0.3000000000  0.7000000000
 EXTERNAL_FIELDS_LOAD,     36006 : iP,iLd,i0,i1=   12    1   12    1 ; Wght=  0.3000000000  0.7000000000
 cg2d: Sum(rhs),rhsMax =   3.91509291171117E+02  2.29566698479260E+02
(PID.TID 0000.0001)                    cg2d_init_res =    2.77965755135661E+00
(PID.TID 0000.0001)                       cg2d_iters =    68
(PID.TID 0000.0001)                         cg2d_res =    5.36088993565463E-07
(PID.TID 0000.0001) // =======================================================
(PID.TID 0000.0001) // Begin MONITOR dynamic field statistics
(PID.TID 0000.0001) // =======================================================
(PID.TID 0000.0001) %MON time_tsnumber                =                 36007
(PID.TID 0000.0001) %MON time_secondsf                =   3.1110048000000E+09
(PID.TID 0000.0001) %MON dynstat_eta_max              =   7.2655174575199E-01
(PID.TID 0000.0001) %MON dynstat_eta_min              =  -1.1975499479095E+01
(PID.TID 0000.0001) %MON dynstat_eta_mean             =  -5.8230861577680E-01
(PID.TID 0000.0001) %MON dynstat_eta_sd               =   1.7015446983372E+00
(PID.TID 0000.0001) %MON dynstat_eta_del2             =   2.1263284782289E-02
(PID.TID 0000.0001) %MON dynstat_uvel_max             =   1.7451052652410E-01
(PID.TID 0000.0001) %MON dynstat_uvel_min             =  -2.6900862111743E-01
(PID.TID 0000.0001) %MON dynstat_uvel_mean            =  -5.2557746628588E-04
(PID.TID 0000.0001) %MON dynstat_uvel_sd              =   1.2980438384498E-02
(PID.TID 0000.0001) %MON dynstat_uvel_del2            =   5.8683108922455E-05
(PID.TID 0000.0001) %MON dynstat_vvel_max             =   1.9516646722542E-01
(PID.TID 0000.0001) %MON dynstat_vvel_min             =  -2.1116269833352E-01
(PID.TID 0000.0001) %MON dynstat_vvel_mean            =  -4.2266492506381E-04
(PID.TID 0000.0001) %MON dynstat_vvel_sd              =   1.3481722312103E-02
(PID.TID 0000.0001) %MON dynstat_vvel_del2            =   5.6114961371040E-05
(PID.TID 0000.0001) %MON dynstat_wvel_max             =   8.6107233905016E-05
(PID.TID 0000.0001) %MON dynstat_wvel_min             =  -1.7826799936005E-04
(PID.TID 0000.0001) %MON dynstat_wvel_mean            =  -1.1668827829704E-09
(PID.TID 0000.0001) %MON dynstat_wvel_sd              =   4.6225102303751E-06
(PID.TID 0000.0001) %MON dynstat_wvel_del2            =   4.0337458814396E-08
(PID.TID 0000.0001) %MON dynstat_theta_max            =   3.0021802036641E+01
(PID.TID 0000.0001) %MON dynstat_theta_min            =  -3.3488683016645E+00
(PID.TID 0000.0001) %MON dynstat_theta_mean           =   3.5032138055742E+00
(PID.TID 0000.0001) %MON dynstat_theta_sd             =   4.7493469842029E+00
(PID.TID 0000.0001) %MON dynstat_theta_del2           =   2.9518636456227E-03
(PID.TID 0000.0001) %MON dynstat_salt_max             =   4.0831024834172E+01
(PID.TID 0000.0001) %MON dynstat_salt_min             =   1.8034317400392E+01
(PID.TID 0000.0001) %MON dynstat_salt_mean            =   3.4756113372600E+01
(PID.TID 0000.0001) %MON dynstat_salt_sd              =   5.1183253042394E-01
(PID.TID 0000.0001) %MON dynstat_salt_del2            =   8.3912265028544E-04
(PID.TID 0000.0001) %MON forcing_qnet_max             =   7.9038456669114E+02
(PID.TID 0000.0001) %MON forcing_qnet_min             =  -3.6657990434695E+02
(PID.TID 0000.0001) %MON forcing_qnet_mean            =  -5.8070910238160E+00
(PID.TID 0000.0001) %MON forcing_qnet_sd              =   1.2059616717536E+02
(PID.TID 0000.0001) %MON forcing_qnet_del2            =   1.0630447657587E+00
(PID.TID 0000.0001) %MON forcing_qsw_max              =  -0.0000000000000E+00
(PID.TID 0000.0001) %MON forcing_qsw_min              =  -3.4073236530849E+02
(PID.TID 0000.0001) %MON forcing_qsw_mean             =  -1.8655107536624E+02
(PID.TID 0000.0001) %MON forcing_qsw_sd               =   8.0098441741114E+01
(PID.TID 0000.0001) %MON forcing_qsw_del2             =   6.6999148162119E-01
(PID.TID 0000.0001) %MON forcing_empmr_max            =   1.0846783139481E-03
(PID.TID 0000.0001) %MON forcing_empmr_min            =  -3.5175613788352E-04
(PID.TID 0000.0001) %MON forcing_empmr_mean           =   1.7617490798306E-07
(PID.TID 0000.0001) %MON forcing_empmr_sd             =   5.5235137203837E-05
(PID.TID 0000.0001) %MON forcing_empmr_del2           =   1.1727798394319E-06
(PID.TID 0000.0001) %MON forcing_fu_max               =   2.4731784009269E-01
(PID.TID 0000.0001) %MON forcing_fu_min               =  -2.2180668969530E-01
(PID.TID 0000.0001) %MON forcing_fu_mean              =  -4.2870070504621E-03
(PID.TID 0000.0001) %MON forcing_fu_sd                =   6.4197640910106E-02
(PID.TID 0000.0001) %MON forcing_fu_del2              =   2.0958789804308E-04
(PID.TID 0000.0001) %MON forcing_fv_max               =   2.6891042987167E-01
(PID.TID 0000.0001) %MON forcing_fv_min               =  -3.3164734762358E-01
(PID.TID 0000.0001) %MON forcing_fv_mean              =  -1.3708054794422E-02
(PID.TID 0000.0001) %MON forcing_fv_sd                =   7.5544817904543E-02
(PID.TID 0000.0001) %MON forcing_fv_del2              =   2.3785256950118E-04
(PID.TID 0000.0001) %MON advcfl_uvel_max              =   7.6295947689107E-02
(PID.TID 0000.0001) %MON advcfl_vvel_max              =   8.5070313516567E-02
(PID.TID 0000.0001) %MON advcfl_wvel_max              =   5.8122094885693E-02
(PID.TID 0000.0001) %MON advcfl_W_hf_max              =   6.4208557261878E-02
(PID.TID 0000.0001) %MON pe_b_mean                    =  -1.9308647557201E-03
(PID.TID 0000.0001) %MON ke_max                       =   3.6138673439256E-02
(PID.TID 0000.0001) %MON ke_mean                      =   1.6194057223184E-04
(PID.TID 0000.0001) %MON ke_vol                       =   1.3395905563319E+18
(PID.TID 0000.0001) %MON vort_r_min                   =  -1.2381845512415E-06
(PID.TID 0000.0001) %MON vort_r_max                   =   1.3862365786460E-06
(PID.TID 0000.0001) %MON vort_a_mean                  =  -2.0549865324846E-05
(PID.TID 0000.0001) %MON vort_a_sd                    =   7.5259582585218E-05
(PID.TID 0000.0001) %MON vort_p_mean                  =  -2.4787197428601E-05
(PID.TID 0000.0001) %MON vort_p_sd                    =   1.2817300951572E-04
(PID.TID 0000.0001) %MON surfExpan_theta_mean         =   7.9593363829576E-08
(PID.TID 0000.0001) %MON surfExpan_salt_mean          =   1.8724840423494E-08
(PID.TID 0000.0001) // =======================================================
(PID.TID 0000.0001) // End MONITOR dynamic field statistics
(PID.TID 0000.0001) // =======================================================
(PID.TID 0000.0001) // =======================================================
(PID.TID 0000.0001) // Begin MONITOR Therm.SeaIce statistics
(PID.TID 0000.0001) // =======================================================
(PID.TID 0000.0001) %MON thSI_time_sec                =   3.1110048000000E+09
(PID.TID 0000.0001) %MON thSI_Ice_Area_G              =   2.4923223790524E+13
(PID.TID 0000.0001) %MON thSI_Ice_Area_S              =   1.1771753838678E+13
(PID.TID 0000.0001) %MON thSI_Ice_Area_N              =   1.3151469951846E+13
(PID.TID 0000.0001) %MON thSI_IceH_ave_G              =   4.5639511726581E+00
(PID.TID 0000.0001) %MON thSI_IceH_ave_S              =   5.7796910945399E+00
(PID.TID 0000.0001) %MON thSI_IceH_ave_N              =   3.4757541007988E+00
(PID.TID 0000.0001) %MON thSI_IceH_max_S              =   1.0000000000000E+01
(PID.TID 0000.0001) %MON thSI_IceH_max_N              =   1.0000000000000E+01
(PID.TID 0000.0001) %MON thSI_SnwH_ave_G              =   1.0246884021805E+00
(PID.TID 0000.0001) %MON thSI_SnwH_ave_S              =   1.7707514261858E+00
(PID.TID 0000.0001) %MON thSI_SnwH_ave_N              =   3.5689458910205E-01
(PID.TID 0000.0001) %MON thSI_SnwH_max_S              =   4.0936809944020E+00
(PID.TID 0000.0001) %MON thSI_SnwH_max_N              =   4.1027637673502E+00
(PID.TID 0000.0001) %MON thSI_Tsrf_ave_G              =  -1.7216886972003E+01
(PID.TID 0000.0001) %MON thSI_Tsrf_ave_S              =  -1.1521197793812E-01
(PID.TID 0000.0001) %MON thSI_Tsrf_ave_N              =  -3.2524431223430E+01
(PID.TID 0000.0001) %MON thSI_Tsrf_min_S              =  -5.4020394711941E+00
(PID.TID 0000.0001) %MON thSI_Tsrf_min_N              =  -4.6927730890697E+01
(PID.TID 0000.0001) %MON thSI_Tsrf_max_S              =   0.0000000000000E+00
(PID.TID 0000.0001) %MON thSI_Tsrf_max_N              =  -1.8883339903336E+00
(PID.TID 0000.0001) %MON thSI_Tic1_ave_G              =  -8.4847452173425E+00
(PID.TID 0000.0001) %MON thSI_Tic1_ave_S              =  -5.0214278648283E+00
(PID.TID 0000.0001) %MON thSI_Tic1_ave_N              =  -1.3639579965124E+01
(PID.TID 0000.0001) %MON thSI_Tic1_min_S              =  -1.5621093583563E+01
(PID.TID 0000.0001) %MON thSI_Tic1_min_N              =  -2.1088252258296E+01
(PID.TID 0000.0001) %MON thSI_Tic1_max_S              =  -1.8291420750438E-01
(PID.TID 0000.0001) %MON thSI_Tic1_max_N              =  -7.2239286792755E-01
(PID.TID 0000.0001) %MON thSI_Tic2_ave_G              =  -3.8354810313317E+00
(PID.TID 0000.0001) %MON thSI_Tic2_ave_S              =  -3.0811513532056E+00
(PID.TID 0000.0001) %MON thSI_Tic2_ave_N              =  -4.9582325554635E+00
(PID.TID 0000.0001) %MON thSI_Tic2_min_S              =  -8.6149136365812E+00
(PID.TID 0000.0001) %MON thSI_Tic2_min_N              =  -7.6376221832110E+00
(PID.TID 0000.0001) %MON thSI_Tic2_max_S              =  -1.1941113617744E+00
(PID.TID 0000.0001) %MON thSI_Tic2_max_N              =  -1.2550510978721E+00
(PID.TID 0000.0001) %MON thSI_TotEnerg_G              =  -3.8137947738486E+22
(PID.TID 0000.0001) // =======================================================
(PID.TID 0000.0001) // End MONITOR Therm.SeaIce statistics
(PID.TID 0000.0001) // =======================================================
 BULKF_FIELDS_LOAD,     36007 : iP,iLd,i0,i1=   12    1   12    1 ; Wght=  0.2666666667  0.7333333333
 EXTERNAL_FIELDS_LOAD,     36007 : iP,iLd,i0,i1=   12    1   12    1 ; Wght=  0.2666666667  0.7333333333
 cg2d: Sum(rhs),rhsMax =   3.91503761395636E+02  2.29653736957287E+02
(PID.TID 0000.0001)                    cg2d_init_res =    2.70203081101207E+00
(PID.TID 0000.0001)                       cg2d_iters =    69
(PID.TID 0000.0001)                         cg2d_res =    5.11577520398269E-07
(PID.TID 0000.0001) // =======================================================
(PID.TID 0000.0001) // Begin MONITOR dynamic field statistics
(PID.TID 0000.0001) // =======================================================
(PID.TID 0000.0001) %MON time_tsnumber                =                 36008
(PID.TID 0000.0001) %MON time_secondsf                =   3.1110912000000E+09
(PID.TID 0000.0001) %MON dynstat_eta_max              =   7.2531873078655E-01
(PID.TID 0000.0001) %MON dynstat_eta_min              =  -1.1973319578514E+01
(PID.TID 0000.0001) %MON dynstat_eta_mean             =  -5.8230039110377E-01
(PID.TID 0000.0001) %MON dynstat_eta_sd               =   1.7010267451925E+00
(PID.TID 0000.0001) %MON dynstat_eta_del2             =   2.1276521586080E-02
(PID.TID 0000.0001) %MON dynstat_uvel_max             =   1.7455221937506E-01
(PID.TID 0000.0001) %MON dynstat_uvel_min             =  -2.6861149335869E-01
(PID.TID 0000.0001) %MON dynstat_uvel_mean            =  -5.2508413777191E-04
(PID.TID 0000.0001) %MON dynstat_uvel_sd              =   1.2978388120966E-02
(PID.TID 0000.0001) %MON dynstat_uvel_del2            =   5.8658040515580E-05
(PID.TID 0000.0001) %MON dynstat_vvel_max             =   1.9521111916388E-01
(PID.TID 0000.0001) %MON dynstat_vvel_min             =  -2.1122941163377E-01
(PID.TID 0000.0001) %MON dynstat_vvel_mean            =  -4.2193417783740E-04
(PID.TID 0000.0001) %MON dynstat_vvel_sd              =   1.3481775601718E-02
(PID.TID 0000.0001) %MON dynstat_vvel_del2            =   5.6078031009646E-05
(PID.TID 0000.0001) %MON dynstat_wvel_max             =   8.6876977659969E-05
(PID.TID 0000.0001) %MON dynstat_wvel_min             =  -1.7827057521383E-04
(PID.TID 0000.0001) %MON dynstat_wvel_mean            =  -1.1946871194578E-09
(PID.TID 0000.0001) %MON dynstat_wvel_sd              =   4.6220873930382E-06
(PID.TID 0000.0001) %MON dynstat_wvel_del2            =   4.0338023958010E-08
(PID.TID 0000.0001) %MON dynstat_theta_max            =   3.0000605620705E+01
(PID.TID 0000.0001) %MON dynstat_theta_min            =  -3.3670702429776E+00
(PID.TID 0000.0001) %MON dynstat_theta_mean           =   3.5032806753042E+00
(PID.TID 0000.0001) %MON dynstat_theta_sd             =   4.7494424963392E+00
(PID.TID 0000.0001) %MON dynstat_theta_del2           =   2.9553709913161E-03
(PID.TID 0000.0001) %MON dynstat_salt_max             =   4.0832684299101E+01
(PID.TID 0000.0001) %MON dynstat_salt_min             =   1.8034875180741E+01
(PID.TID 0000.0001) %MON dynstat_salt_mean            =   3.4756114166516E+01
(PID.TID 0000.0001) %MON dynstat_salt_sd              =   5.1182559659538E-01
(PID.TID 0000.0001) %MON dynstat_salt_del2            =   8.3945735766872E-04
(PID.TID 0000.0001) %MON forcing_qnet_max             =   7.9361545310385E+02
(PID.TID 0000.0001) %MON forcing_qnet_min             =  -2.3631242928176E+02
(PID.TID 0000.0001) %MON forcing_qnet_mean            =  -5.8817470735818E+00
(PID.TID 0000.0001) %MON forcing_qnet_sd              =   1.2044936711315E+02
(PID.TID 0000.0001) %MON forcing_qnet_del2            =   1.0527157976436E+00
(PID.TID 0000.0001) %MON forcing_qsw_max              =  -0.0000000000000E+00
(PID.TID 0000.0001) %MON forcing_qsw_min              =  -3.4052832266130E+02
(PID.TID 0000.0001) %MON forcing_qsw_mean             =  -1.8656786767408E+02
(PID.TID 0000.0001) %MON forcing_qsw_sd               =   7.9956857635756E+01
(PID.TID 0000.0001) %MON forcing_qsw_del2             =   6.6740856260760E-01
(PID.TID 0000.0001) %MON forcing_empmr_max            =   7.7364662397166E-04
(PID.TID 0000.0001) %MON forcing_empmr_min            =  -3.3749324705054E-04
(PID.TID 0000.0001) %MON forcing_empmr_mean           =  -9.8524728928760E-08
(PID.TID 0000.0001) %MON forcing_empmr_sd             =   5.2342246384938E-05
(PID.TID 0000.0001) %MON forcing_empmr_del2           =   1.0366772330412E-06
(PID.TID 0000.0001) %MON forcing_fu_max               =   2.4726979082249E-01
(PID.TID 0000.0001) %MON forcing_fu_min               =  -2.2495248635365E-01
(PID.TID 0000.0001) %MON forcing_fu_mean              =  -4.2435281147287E-03
(PID.TID 0000.0001) %MON forcing_fu_sd                =   6.4287840534767E-02
(PID.TID 0000.0001) %MON forcing_fu_del2              =   2.1115214806548E-04
(PID.TID 0000.0001) %MON forcing_fv_max               =   2.7159367144430E-01
(PID.TID 0000.0001) %MON forcing_fv_min               =  -3.3243525155752E-01
(PID.TID 0000.0001) %MON forcing_fv_mean              =  -1.3711980340349E-02
(PID.TID 0000.0001) %MON forcing_fv_sd                =   7.5645935346452E-02
(PID.TID 0000.0001) %MON forcing_fv_del2              =   2.3922805906111E-04
(PID.TID 0000.0001) %MON advcfl_uvel_max              =   7.6183314723738E-02
(PID.TID 0000.0001) %MON advcfl_vvel_max              =   8.5089776667478E-02
(PID.TID 0000.0001) %MON advcfl_wvel_max              =   5.8122934711225E-02
(PID.TID 0000.0001) %MON advcfl_W_hf_max              =   6.4209496236634E-02
(PID.TID 0000.0001) %MON pe_b_mean                    =  -1.9300326016924E-03
(PID.TID 0000.0001) %MON ke_max                       =   3.6016599334325E-02
(PID.TID 0000.0001) %MON ke_mean                      =   1.6191627730618E-04
(PID.TID 0000.0001) %MON ke_vol                       =   1.3395905509803E+18
(PID.TID 0000.0001) %MON vort_r_min                   =  -1.2429946925008E-06
(PID.TID 0000.0001) %MON vort_r_max                   =   1.3896997113857E-06
(PID.TID 0000.0001) %MON vort_a_mean                  =  -2.0549865324846E-05
(PID.TID 0000.0001) %MON vort_a_sd                    =   7.5259582519369E-05
(PID.TID 0000.0001) %MON vort_p_mean                  =  -2.4787197077767E-05
(PID.TID 0000.0001) %MON vort_p_sd                    =   1.2817301200046E-04
(PID.TID 0000.0001) %MON surfExpan_theta_mean         =   8.0187526536418E-08
(PID.TID 0000.0001) %MON surfExpan_salt_mean          =   1.9004930652495E-08
(PID.TID 0000.0001) // =======================================================
(PID.TID 0000.0001) // End MONITOR dynamic field statistics
(PID.TID 0000.0001) // =======================================================
(PID.TID 0000.0001) // =======================================================
(PID.TID 0000.0001) // Begin MONITOR Therm.SeaIce statistics
(PID.TID 0000.0001) // =======================================================
(PID.TID 0000.0001) %MON thSI_time_sec                =   3.1110912000000E+09
(PID.TID 0000.0001) %MON thSI_Ice_Area_G              =   2.4935856056697E+13
(PID.TID 0000.0001) %MON thSI_Ice_Area_S              =   1.1733827303088E+13
(PID.TID 0000.0001) %MON thSI_Ice_Area_N              =   1.3202028753609E+13
(PID.TID 0000.0001) %MON thSI_IceH_ave_G              =   4.5620658080426E+00
(PID.TID 0000.0001) %MON thSI_IceH_ave_S              =   5.7915136839898E+00
(PID.TID 0000.0001) %MON thSI_IceH_ave_N              =   3.4693451873145E+00
(PID.TID 0000.0001) %MON thSI_IceH_max_S              =   1.0000000000000E+01
(PID.TID 0000.0001) %MON thSI_IceH_max_N              =   1.0000000000000E+01
(PID.TID 0000.0001) %MON thSI_SnwH_ave_G              =   1.0204768212627E+00
(PID.TID 0000.0001) %MON thSI_SnwH_ave_S              =   1.7653451696319E+00
(PID.TID 0000.0001) %MON thSI_SnwH_ave_N              =   3.5844549816690E-01
(PID.TID 0000.0001) %MON thSI_SnwH_max_S              =   4.0935945628774E+00
(PID.TID 0000.0001) %MON thSI_SnwH_max_N              =   4.1030063892503E+00
(PID.TID 0000.0001) %MON thSI_Tsrf_ave_G              =  -1.7309542279054E+01
(PID.TID 0000.0001) %MON thSI_Tsrf_ave_S              =  -1.3696061287116E-01
(PID.TID 0000.0001) %MON thSI_Tsrf_ave_N              =  -3.2572356152571E+01
(PID.TID 0000.0001) %MON thSI_Tsrf_min_S              =  -5.4181865571567E+00
(PID.TID 0000.0001) %MON thSI_Tsrf_min_N              =  -4.7042517891588E+01
(PID.TID 0000.0001) %MON thSI_Tsrf_max_S              =   0.0000000000000E+00
(PID.TID 0000.0001) %MON thSI_Tsrf_max_N              =  -8.1883374957087E+00
(PID.TID 0000.0001) %MON thSI_Tic1_ave_G              =  -8.5056499750036E+00
(PID.TID 0000.0001) %MON thSI_Tic1_ave_S              =  -4.9956413724994E+00
(PID.TID 0000.0001) %MON thSI_Tic1_ave_N              =  -1.3713419701939E+01
(PID.TID 0000.0001) %MON thSI_Tic1_min_S              =  -1.5479148946414E+01
(PID.TID 0000.0001) %MON thSI_Tic1_min_N              =  -2.1153429795707E+01
(PID.TID 0000.0001) %MON thSI_Tic1_max_S              =  -1.9879481414852E-01
(PID.TID 0000.0001) %MON thSI_Tic1_max_N              =  -7.4036438428371E-01
(PID.TID 0000.0001) %MON thSI_Tic2_ave_G              =  -3.8467265956265E+00
(PID.TID 0000.0001) %MON thSI_Tic2_ave_S              =  -3.0772609828005E+00
(PID.TID 0000.0001) %MON thSI_Tic2_ave_N              =  -4.9883761407400E+00
(PID.TID 0000.0001) %MON thSI_Tic2_min_S              =  -8.5854002809258E+00
(PID.TID 0000.0001) %MON thSI_Tic2_min_N              =  -7.6699896766327E+00
(PID.TID 0000.0001) %MON thSI_Tic2_max_S              =  -1.2009693755625E+00
(PID.TID 0000.0001) %MON thSI_Tic2_max_N              =  -1.2709268241228E+00
(PID.TID 0000.0001) %MON thSI_TotEnerg_G              =  -3.8133871135304E+22
(PID.TID 0000.0001) // =======================================================
(PID.TID 0000.0001) // End MONITOR Therm.SeaIce statistics
(PID.TID 0000.0001) // =======================================================
 BULKF_FIELDS_LOAD,     36008 : iP,iLd,i0,i1=   12    1   12    1 ; Wght=  0.2333333333  0.7666666667
 EXTERNAL_FIELDS_LOAD,     36008 : iP,iLd,i0,i1=   12    1   12    1 ; Wght=  0.2333333333  0.7666666667
 cg2d: Sum(rhs),rhsMax =   3.91486131904745E+02  2.29746963126558E+02
(PID.TID 0000.0001)                    cg2d_init_res =    2.67156744617897E+00
(PID.TID 0000.0001)                       cg2d_iters =    69
(PID.TID 0000.0001)                         cg2d_res =    5.44418514248325E-07
(PID.TID 0000.0001) // =======================================================
(PID.TID 0000.0001) // Begin MONITOR dynamic field statistics
(PID.TID 0000.0001) // =======================================================
(PID.TID 0000.0001) %MON time_tsnumber                =                 36009
(PID.TID 0000.0001) %MON time_secondsf                =   3.1111776000000E+09
(PID.TID 0000.0001) %MON dynstat_eta_max              =   7.2403424867132E-01
(PID.TID 0000.0001) %MON dynstat_eta_min              =  -1.1971042154784E+01
(PID.TID 0000.0001) %MON dynstat_eta_mean             =  -5.8227417000336E-01
(PID.TID 0000.0001) %MON dynstat_eta_sd               =   1.7005245380378E+00
(PID.TID 0000.0001) %MON dynstat_eta_del2             =   2.1288524432258E-02
(PID.TID 0000.0001) %MON dynstat_uvel_max             =   1.7452811878625E-01
(PID.TID 0000.0001) %MON dynstat_uvel_min             =  -2.6820187944032E-01
(PID.TID 0000.0001) %MON dynstat_uvel_mean            =  -5.2461895345171E-04
(PID.TID 0000.0001) %MON dynstat_uvel_sd              =   1.2976354694335E-02
(PID.TID 0000.0001) %MON dynstat_uvel_del2            =   5.8633532107601E-05
(PID.TID 0000.0001) %MON dynstat_vvel_max             =   1.9519195359774E-01
(PID.TID 0000.0001) %MON dynstat_vvel_min             =  -2.1128980937017E-01
(PID.TID 0000.0001) %MON dynstat_vvel_mean            =  -4.2116387229177E-04
(PID.TID 0000.0001) %MON dynstat_vvel_sd              =   1.3481408306792E-02
(PID.TID 0000.0001) %MON dynstat_vvel_del2            =   5.6042541607843E-05
(PID.TID 0000.0001) %MON dynstat_wvel_max             =   8.7646784016362E-05
(PID.TID 0000.0001) %MON dynstat_wvel_min             =  -1.7822554329217E-04
(PID.TID 0000.0001) %MON dynstat_wvel_mean            =  -1.2228266174785E-09
(PID.TID 0000.0001) %MON dynstat_wvel_sd              =   4.6218065675506E-06
(PID.TID 0000.0001) %MON dynstat_wvel_del2            =   4.0338994508943E-08
(PID.TID 0000.0001) %MON dynstat_theta_max            =   2.9979348098621E+01
(PID.TID 0000.0001) %MON dynstat_theta_min            =  -3.3852745030433E+00
(PID.TID 0000.0001) %MON dynstat_theta_mean           =   3.5033482227209E+00
(PID.TID 0000.0001) %MON dynstat_theta_sd             =   4.7495464031131E+00
(PID.TID 0000.0001) %MON dynstat_theta_del2           =   2.9583618637855E-03
(PID.TID 0000.0001) %MON dynstat_salt_max             =   4.0834210162552E+01
(PID.TID 0000.0001) %MON dynstat_salt_min             =   1.8035437163985E+01
(PID.TID 0000.0001) %MON dynstat_salt_mean            =   3.4756114830603E+01
(PID.TID 0000.0001) %MON dynstat_salt_sd              =   5.1181887099494E-01
(PID.TID 0000.0001) %MON dynstat_salt_del2            =   8.3967009428508E-04
(PID.TID 0000.0001) %MON forcing_qnet_max             =   7.9679638933055E+02
(PID.TID 0000.0001) %MON forcing_qnet_min             =  -2.3593040359800E+02
(PID.TID 0000.0001) %MON forcing_qnet_mean            =  -5.9424506886400E+00
(PID.TID 0000.0001) %MON forcing_qnet_sd              =   1.2037410441606E+02
(PID.TID 0000.0001) %MON forcing_qnet_del2            =   1.0482997271404E+00
(PID.TID 0000.0001) %MON forcing_qsw_max              =  -0.0000000000000E+00
(PID.TID 0000.0001) %MON forcing_qsw_min              =  -3.4032428001410E+02
(PID.TID 0000.0001) %MON forcing_qsw_mean             =  -1.8658003493516E+02
(PID.TID 0000.0001) %MON forcing_qsw_sd               =   7.9818066097770E+01
(PID.TID 0000.0001) %MON forcing_qsw_del2             =   6.6522640469806E-01
(PID.TID 0000.0001) %MON forcing_empmr_max            =   5.1402201517627E-04
(PID.TID 0000.0001) %MON forcing_empmr_min            =  -3.0316830077330E-04
(PID.TID 0000.0001) %MON forcing_empmr_mean           =  -3.1410693206173E-07
(PID.TID 0000.0001) %MON forcing_empmr_sd             =   4.9947870995642E-05
(PID.TID 0000.0001) %MON forcing_empmr_del2           =   9.5635650952051E-07
(PID.TID 0000.0001) %MON forcing_fu_max               =   2.4722174155228E-01
(PID.TID 0000.0001) %MON forcing_fu_min               =  -2.2809828301201E-01
(PID.TID 0000.0001) %MON forcing_fu_mean              =  -4.2000491789953E-03
(PID.TID 0000.0001) %MON forcing_fu_sd                =   6.4391296774987E-02
(PID.TID 0000.0001) %MON forcing_fu_del2              =   2.1293834199113E-04
(PID.TID 0000.0001) %MON forcing_fv_max               =   2.7427691301694E-01
(PID.TID 0000.0001) %MON forcing_fv_min               =  -3.3322315549145E-01
(PID.TID 0000.0001) %MON forcing_fv_mean              =  -1.3715905886277E-02
(PID.TID 0000.0001) %MON forcing_fv_sd                =   7.5757214244312E-02
(PID.TID 0000.0001) %MON forcing_fv_del2              =   2.4079325037298E-04
(PID.TID 0000.0001) %MON advcfl_uvel_max              =   7.6067140446650E-02
(PID.TID 0000.0001) %MON advcfl_vvel_max              =   8.5081422667203E-02
(PID.TID 0000.0001) %MON advcfl_wvel_max              =   5.8108252605448E-02
(PID.TID 0000.0001) %MON advcfl_W_hf_max              =   6.4193288407959E-02
(PID.TID 0000.0001) %MON pe_b_mean                    =  -1.9291659116069E-03
(PID.TID 0000.0001) %MON ke_max                       =   3.5891962052300E-02
(PID.TID 0000.0001) %MON ke_mean                      =   1.6188692597797E-04
(PID.TID 0000.0001) %MON ke_vol                       =   1.3395905539732E+18
(PID.TID 0000.0001) %MON vort_r_min                   =  -1.2479308338469E-06
(PID.TID 0000.0001) %MON vort_r_max                   =   1.3931643434712E-06
(PID.TID 0000.0001) %MON vort_a_mean                  =  -2.0549865324846E-05
(PID.TID 0000.0001) %MON vort_a_sd                    =   7.5259582455302E-05
(PID.TID 0000.0001) %MON vort_p_mean                  =  -2.4787196613536E-05
(PID.TID 0000.0001) %MON vort_p_sd                    =   1.2817301297545E-04
(PID.TID 0000.0001) %MON surfExpan_theta_mean         =   8.0356906642111E-08
(PID.TID 0000.0001) %MON surfExpan_salt_mean          =   1.9156136663926E-08
(PID.TID 0000.0001) // =======================================================
(PID.TID 0000.0001) // End MONITOR dynamic field statistics
(PID.TID 0000.0001) // =======================================================
(PID.TID 0000.0001) // =======================================================
(PID.TID 0000.0001) // Begin MONITOR Therm.SeaIce statistics
(PID.TID 0000.0001) // =======================================================
(PID.TID 0000.0001) %MON thSI_time_sec                =   3.1111776000000E+09
(PID.TID 0000.0001) %MON thSI_Ice_Area_G              =   2.4936092012587E+13
(PID.TID 0000.0001) %MON thSI_Ice_Area_S              =   1.1697662262674E+13
(PID.TID 0000.0001) %MON thSI_Ice_Area_N              =   1.3238429749913E+13
(PID.TID 0000.0001) %MON thSI_IceH_ave_G              =   4.5621153132112E+00
(PID.TID 0000.0001) %MON thSI_IceH_ave_S              =   5.8026409524951E+00
(PID.TID 0000.0001) %MON thSI_IceH_ave_N              =   3.4659694537201E+00
(PID.TID 0000.0001) %MON thSI_IceH_max_S              =   1.0000000000000E+01
(PID.TID 0000.0001) %MON thSI_IceH_max_N              =   1.0000000000000E+01
(PID.TID 0000.0001) %MON thSI_SnwH_ave_G              =   1.0169711246468E+00
(PID.TID 0000.0001) %MON thSI_SnwH_ave_S              =   1.7600374250615E+00
(PID.TID 0000.0001) %MON thSI_SnwH_ave_N              =   3.6038731635311E-01
(PID.TID 0000.0001) %MON thSI_SnwH_max_S              =   4.0935139509900E+00
(PID.TID 0000.0001) %MON thSI_SnwH_max_N              =   4.1032675029123E+00
(PID.TID 0000.0001) %MON thSI_Tsrf_ave_G              =  -1.7380511656902E+01
(PID.TID 0000.0001) %MON thSI_Tsrf_ave_S              =  -1.1853595923421E-01
(PID.TID 0000.0001) %MON thSI_Tsrf_ave_N              =  -3.2633435569508E+01
(PID.TID 0000.0001) %MON thSI_Tsrf_min_S              =  -5.4342947033974E+00
(PID.TID 0000.0001) %MON thSI_Tsrf_min_N              =  -4.7157365170062E+01
(PID.TID 0000.0001) %MON thSI_Tsrf_max_S              =   0.0000000000000E+00
(PID.TID 0000.0001) %MON thSI_Tsrf_max_N              =  -9.3208502018958E+00
(PID.TID 0000.0001) %MON thSI_Tic1_ave_G              =  -8.5284873511726E+00
(PID.TID 0000.0001) %MON thSI_Tic1_ave_S              =  -4.9739267872687E+00
(PID.TID 0000.0001) %MON thSI_Tic1_ave_N              =  -1.3786837344332E+01
(PID.TID 0000.0001) %MON thSI_Tic1_min_S              =  -1.5338817167899E+01
(PID.TID 0000.0001) %MON thSI_Tic1_min_N              =  -2.1216432196176E+01
(PID.TID 0000.0001) %MON thSI_Tic1_max_S              =  -1.9135531613994E-01
(PID.TID 0000.0001) %MON thSI_Tic1_max_N              =  -7.5913577645425E-01
(PID.TID 0000.0001) %MON thSI_Tic2_ave_G              =  -3.8577655833842E+00
(PID.TID 0000.0001) %MON thSI_Tic2_ave_S              =  -3.0733285959432E+00
(PID.TID 0000.0001) %MON thSI_Tic2_ave_N              =  -5.0182027607476E+00
(PID.TID 0000.0001) %MON thSI_Tic2_min_S              =  -8.5557358842479E+00
(PID.TID 0000.0001) %MON thSI_Tic2_min_N              =  -7.7013400137950E+00
(PID.TID 0000.0001) %MON thSI_Tic2_max_S              =  -1.1586810900874E+00
(PID.TID 0000.0001) %MON thSI_Tic2_max_N              =  -1.2868269818911E+00
(PID.TID 0000.0001) %MON thSI_TotEnerg_G              =  -3.8127733301261E+22
(PID.TID 0000.0001) // =======================================================
(PID.TID 0000.0001) // End MONITOR Therm.SeaIce statistics
(PID.TID 0000.0001) // =======================================================
 BULKF_FIELDS_LOAD,     36009 : iP,iLd,i0,i1=   12    1   12    1 ; Wght=  0.2000000000  0.8000000000
 EXTERNAL_FIELDS_LOAD,     36009 : iP,iLd,i0,i1=   12    1   12    1 ; Wght=  0.2000000000  0.8000000000
 cg2d: Sum(rhs),rhsMax =   3.91457878286922E+02  2.29845851844698E+02
(PID.TID 0000.0001)                    cg2d_init_res =    2.66058290657620E+00
(PID.TID 0000.0001)                       cg2d_iters =    69
(PID.TID 0000.0001)                         cg2d_res =    5.50268034084436E-07
(PID.TID 0000.0001) // =======================================================
(PID.TID 0000.0001) // Begin MONITOR dynamic field statistics
(PID.TID 0000.0001) // =======================================================
(PID.TID 0000.0001) %MON time_tsnumber                =                 36010
(PID.TID 0000.0001) %MON time_secondsf                =   3.1112640000000E+09
(PID.TID 0000.0001) %MON dynstat_eta_max              =   7.2270180556830E-01
(PID.TID 0000.0001) %MON dynstat_eta_min              =  -1.1968648953645E+01
(PID.TID 0000.0001) %MON dynstat_eta_mean             =  -5.8223214718179E-01
(PID.TID 0000.0001) %MON dynstat_eta_sd               =   1.7000282715365E+00
(PID.TID 0000.0001) %MON dynstat_eta_del2             =   2.1298957689613E-02
(PID.TID 0000.0001) %MON dynstat_uvel_max             =   1.7444086311093E-01
(PID.TID 0000.0001) %MON dynstat_uvel_min             =  -2.6777942682896E-01
(PID.TID 0000.0001) %MON dynstat_uvel_mean            =  -5.2415701436077E-04
(PID.TID 0000.0001) %MON dynstat_uvel_sd              =   1.2974398571659E-02
(PID.TID 0000.0001) %MON dynstat_uvel_del2            =   5.8610061957715E-05
(PID.TID 0000.0001) %MON dynstat_vvel_max             =   1.9510920873067E-01
(PID.TID 0000.0001) %MON dynstat_vvel_min             =  -2.1134425245614E-01
(PID.TID 0000.0001) %MON dynstat_vvel_mean            =  -4.2040491714944E-04
(PID.TID 0000.0001) %MON dynstat_vvel_sd              =   1.3480602028766E-02
(PID.TID 0000.0001) %MON dynstat_vvel_del2            =   5.6008541280592E-05
(PID.TID 0000.0001) %MON dynstat_wvel_max             =   8.8405828633047E-05
(PID.TID 0000.0001) %MON dynstat_wvel_min             =  -1.7813644388531E-04
(PID.TID 0000.0001) %MON dynstat_wvel_mean            =  -1.2451955668694E-09
(PID.TID 0000.0001) %MON dynstat_wvel_sd              =   4.6215060747792E-06
(PID.TID 0000.0001) %MON dynstat_wvel_del2            =   4.0336083311671E-08
(PID.TID 0000.0001) %MON dynstat_theta_max            =   2.9958085653480E+01
(PID.TID 0000.0001) %MON dynstat_theta_min            =  -3.4034782308210E+00
(PID.TID 0000.0001) %MON dynstat_theta_mean           =   3.5034163338429E+00
(PID.TID 0000.0001) %MON dynstat_theta_sd             =   4.7496576529001E+00
(PID.TID 0000.0001) %MON dynstat_theta_del2           =   2.9623084952513E-03
(PID.TID 0000.0001) %MON dynstat_salt_max             =   4.0835603214243E+01
(PID.TID 0000.0001) %MON dynstat_salt_min             =   1.8036015600828E+01
(PID.TID 0000.0001) %MON dynstat_salt_mean            =   3.4756115375652E+01
(PID.TID 0000.0001) %MON dynstat_salt_sd              =   5.1181206743842E-01
(PID.TID 0000.0001) %MON dynstat_salt_del2            =   8.3999182786470E-04
(PID.TID 0000.0001) %MON forcing_qnet_max             =   7.9995369326418E+02
(PID.TID 0000.0001) %MON forcing_qnet_min             =  -2.3555036980429E+02
(PID.TID 0000.0001) %MON forcing_qnet_mean            =  -5.9979985396115E+00
(PID.TID 0000.0001) %MON forcing_qnet_sd              =   1.2037487197121E+02
(PID.TID 0000.0001) %MON forcing_qnet_del2            =   1.0515774421988E+00
(PID.TID 0000.0001) %MON forcing_qsw_max              =  -0.0000000000000E+00
(PID.TID 0000.0001) %MON forcing_qsw_min              =  -3.4012023736691E+02
(PID.TID 0000.0001) %MON forcing_qsw_mean             =  -1.8659203251794E+02
(PID.TID 0000.0001) %MON forcing_qsw_sd               =   7.9680836178697E+01
(PID.TID 0000.0001) %MON forcing_qsw_del2             =   6.6429930604562E-01
(PID.TID 0000.0001) %MON forcing_empmr_max            =   3.9430549919385E-04
(PID.TID 0000.0001) %MON forcing_empmr_min            =  -3.0800470796641E-04
(PID.TID 0000.0001) %MON forcing_empmr_mean           =  -5.0339838337724E-07
(PID.TID 0000.0001) %MON forcing_empmr_sd             =   4.9099665133239E-05
(PID.TID 0000.0001) %MON forcing_empmr_del2           =   9.3433365360423E-07
(PID.TID 0000.0001) %MON forcing_fu_max               =   2.4734156444157E-01
(PID.TID 0000.0001) %MON forcing_fu_min               =  -2.3124407967036E-01
(PID.TID 0000.0001) %MON forcing_fu_mean              =  -4.1565702432618E-03
(PID.TID 0000.0001) %MON forcing_fu_sd                =   6.4507945848906E-02
(PID.TID 0000.0001) %MON forcing_fu_del2              =   2.1494094672237E-04
(PID.TID 0000.0001) %MON forcing_fv_max               =   2.7696015458957E-01
(PID.TID 0000.0001) %MON forcing_fv_min               =  -3.3401105942538E-01
(PID.TID 0000.0001) %MON forcing_fv_mean              =  -1.3719831432204E-02
(PID.TID 0000.0001) %MON forcing_fv_sd                =   7.5878609891640E-02
(PID.TID 0000.0001) %MON forcing_fv_del2              =   2.4254447090673E-04
(PID.TID 0000.0001) %MON advcfl_uvel_max              =   7.5947324872697E-02
(PID.TID 0000.0001) %MON advcfl_vvel_max              =   8.5045355345377E-02
(PID.TID 0000.0001) %MON advcfl_wvel_max              =   5.8079202836569E-02
(PID.TID 0000.0001) %MON advcfl_W_hf_max              =   6.4161211717321E-02
(PID.TID 0000.0001) %MON pe_b_mean                    =  -1.9282422793308E-03
(PID.TID 0000.0001) %MON ke_max                       =   3.5764730831715E-02
(PID.TID 0000.0001) %MON ke_mean                      =   1.6185301694709E-04
(PID.TID 0000.0001) %MON ke_vol                       =   1.3395905635147E+18
(PID.TID 0000.0001) %MON vort_r_min                   =  -1.2529636027583E-06
(PID.TID 0000.0001) %MON vort_r_max                   =   1.3965864725940E-06
(PID.TID 0000.0001) %MON vort_a_mean                  =  -2.0549865324846E-05
(PID.TID 0000.0001) %MON vort_a_sd                    =   7.5259582389684E-05
(PID.TID 0000.0001) %MON vort_p_mean                  =  -2.4787196075279E-05
(PID.TID 0000.0001) %MON vort_p_sd                    =   1.2817301306380E-04
(PID.TID 0000.0001) %MON surfExpan_theta_mean         =   8.0271976303834E-08
(PID.TID 0000.0001) %MON surfExpan_salt_mean          =   1.9360710780687E-08
(PID.TID 0000.0001) // =======================================================
(PID.TID 0000.0001) // End MONITOR dynamic field statistics
(PID.TID 0000.0001) // =======================================================
(PID.TID 0000.0001) // =======================================================
(PID.TID 0000.0001) // Begin MONITOR Therm.SeaIce statistics
(PID.TID 0000.0001) // =======================================================
(PID.TID 0000.0001) %MON thSI_time_sec                =   3.1112640000000E+09
(PID.TID 0000.0001) %MON thSI_Ice_Area_G              =   2.4933329395954E+13
(PID.TID 0000.0001) %MON thSI_Ice_Area_S              =   1.1661567824524E+13
(PID.TID 0000.0001) %MON thSI_Ice_Area_N              =   1.3271761571430E+13
(PID.TID 0000.0001) %MON thSI_IceH_ave_G              =   4.5624573179076E+00
(PID.TID 0000.0001) %MON thSI_IceH_ave_S              =   5.8137967104734E+00
(PID.TID 0000.0001) %MON thSI_IceH_ave_N              =   3.4629364201455E+00
(PID.TID 0000.0001) %MON thSI_IceH_max_S              =   1.0000000000000E+01
(PID.TID 0000.0001) %MON thSI_IceH_max_N              =   1.0000000000000E+01
(PID.TID 0000.0001) %MON thSI_SnwH_ave_G              =   1.0136529218965E+00
(PID.TID 0000.0001) %MON thSI_SnwH_ave_S              =   1.7548152968649E+00
(PID.TID 0000.0001) %MON thSI_SnwH_ave_N              =   3.6241191985167E-01
(PID.TID 0000.0001) %MON thSI_SnwH_max_S              =   4.0934390103675E+00
(PID.TID 0000.0001) %MON thSI_SnwH_max_N              =   4.1035579775852E+00
(PID.TID 0000.0001) %MON thSI_Tsrf_ave_G              =  -1.7468588278568E+01
(PID.TID 0000.0001) %MON thSI_Tsrf_ave_S              =  -1.4074777951610E-01
(PID.TID 0000.0001) %MON thSI_Tsrf_ave_N              =  -3.2694132087855E+01
(PID.TID 0000.0001) %MON thSI_Tsrf_min_S              =  -5.4503642188640E+00
(PID.TID 0000.0001) %MON thSI_Tsrf_min_N              =  -4.7272274122120E+01
(PID.TID 0000.0001) %MON thSI_Tsrf_max_S              =   0.0000000000000E+00
(PID.TID 0000.0001) %MON thSI_Tsrf_max_N              =  -1.7599484805235E+00
(PID.TID 0000.0001) %MON thSI_Tic1_ave_G              =  -8.5482646830683E+00
(PID.TID 0000.0001) %MON thSI_Tic1_ave_S              =  -4.9478315408693E+00
(PID.TID 0000.0001) %MON thSI_Tic1_ave_N              =  -1.3859535499508E+01
(PID.TID 0000.0001) %MON thSI_Tic1_min_S              =  -1.5200081371931E+01
(PID.TID 0000.0001) %MON thSI_Tic1_min_N              =  -2.1277339115399E+01
(PID.TID 0000.0001) %MON thSI_Tic1_max_S              =  -1.8443013427708E-01
(PID.TID 0000.0001) %MON thSI_Tic1_max_N              =  -7.7875142816171E-01
(PID.TID 0000.0001) %MON thSI_Tic2_ave_G              =  -3.8686243873058E+00
(PID.TID 0000.0001) %MON thSI_Tic2_ave_S              =  -3.0693656035581E+00
(PID.TID 0000.0001) %MON thSI_Tic2_ave_N              =  -5.0476713756105E+00
(PID.TID 0000.0001) %MON thSI_Tic2_min_S              =  -8.5247449636408E+00
(PID.TID 0000.0001) %MON thSI_Tic2_min_N              =  -7.7317038802835E+00
(PID.TID 0000.0001) %MON thSI_Tic2_max_S              =  -1.1198491572771E+00
(PID.TID 0000.0001) %MON thSI_Tic2_max_N              =  -1.3025899909664E+00
(PID.TID 0000.0001) %MON thSI_TotEnerg_G              =  -3.8119452725676E+22
(PID.TID 0000.0001) // =======================================================
(PID.TID 0000.0001) // End MONITOR Therm.SeaIce statistics
(PID.TID 0000.0001) // =======================================================
 Computing Diagnostic #     23  ETAN         Counter:       1   Parms: SM      M1      
 Computing Diagnostic #     84  oceFWflx     Counter:       1   Parms: SM      U1      
 Computing Diagnostic #     26  THETA        Counter:       1   Parms: SMR     MR      
 Computing Diagnostic #     27  SALT         Counter:       1   Parms: SMR     MR      
 Compute Stats, Diag. #     23  ETAN      vol(   0 ): 3.639E+15  Parms: SM      M1      
 Compute Stats, Diag. #     24  ETANSQ    vol(   0 ): 3.639E+15  Parms: SM P    M1      
 Compute Stats, Diag. #     25  DETADT2   vol(   0 ): 3.639E+15  Parms: SM      M1      
 Compute Stats, Diag. #     26  THETA     vol(   0 ): 1.340E+19  Parms: SMR     MR      
 Compute Stats, Diag. #     27  SALT      vol(   0 ): 1.340E+19  Parms: SMR     MR      
 Compute Stats, Diag. #     79  CONVADJ   vol(   0 ): 1.315E+19  Parms: SMR     LR      
 Compute Stats, Diag. #     80  oceTAUX   vol(   0 ): 3.111E+15  Parms: UU      U1      
 Compute Stats, Diag. #     81  oceTAUY   vol(   0 ): 3.130E+15  Parms: VV      U1      
 Compute Stats, Diag. #     89  TRELAX    vol(   0 ): 3.275E+15  Parms: SM      U1      
 Compute Stats, Diag. #     90  SRELAX    vol(   0 ): 3.275E+15  Parms: SM      U1      
 Compute Stats, Diag. #     91  surForcT  vol(   0 ): 3.275E+15  Parms: SM      U1      
 Compute Stats, Diag. #     92  surForcS  vol(   0 ): 3.275E+15  Parms: SM      U1      
 Compute Stats, Diag. #     93  TFLUX     vol(   0 ): 3.275E+15  Parms: SM      U1      
 Compute Stats, Diag. #     94  SFLUX     vol(   0 ): 3.275E+15  Parms: SM      U1      
 Compute Stats, Diag. #     86  oceQnet   vol(   0 ): 3.275E+15  Parms: SM      U1      
 Compute Stats, Diag. #     85  oceSflux  vol(   0 ): 3.275E+15  Parms: SM      U1      
 Compute Stats, Diag. #     84  oceFWflx  vol(   0 ): 3.275E+15  Parms: SM      U1      
 Compute Stats, Diag. #    211  SI_Fract  vol(   0 ): 3.639E+15  Parms: SM P    M1      
 Compute Stats, Diag. #    211  SI_Fract  vol(   1 ): 1.289E+15  Parms: SM P    M1      
 Compute Stats, Diag. #    211  SI_Fract  vol(   3 ): 7.935E+14  Parms: SM P    M1      
 Compute Stats, Diag. #    212  SI_Thick  vol(   0 ): 2.483E+14  Parms: SM PC   M1      
    use Counter Mate  #    211  SI_Fract  vol(   0 ): 3.639E+15 integral 2.483E+14
 Compute Stats, Diag. #    212  SI_Thick  vol(   1 ): 1.189E+14  Parms: SM PC   M1      
    use Counter Mate  #    211  SI_Fract  vol(   1 ): 1.289E+15 integral 1.189E+14
 Compute Stats, Diag. #    212  SI_Thick  vol(   3 ): 1.294E+14  Parms: SM PC   M1      
    use Counter Mate  #    211  SI_Fract  vol(   3 ): 7.935E+14 integral 1.294E+14
 Compute Stats, Diag. #    213  SI_SnowH  vol(   0 ): 2.483E+14  Parms: SM PC   M1      
    use Counter Mate  #    211  SI_Fract  vol(   0 ): 3.639E+15 integral 2.483E+14
 Compute Stats, Diag. #    213  SI_SnowH  vol(   1 ): 1.189E+14  Parms: SM PC   M1      
    use Counter Mate  #    211  SI_Fract  vol(   1 ): 1.289E+15 integral 1.189E+14
 Compute Stats, Diag. #    213  SI_SnowH  vol(   3 ): 1.294E+14  Parms: SM PC   M1      
    use Counter Mate  #    211  SI_Fract  vol(   3 ): 7.935E+14 integral 1.294E+14
 Compute Stats, Diag. #    214  SI_Tsrf   vol(   0 ): 2.483E+14  Parms: SM  C   M1      
    use Counter Mate  #    211  SI_Fract  vol(   0 ): 3.639E+15 integral 2.483E+14
 Compute Stats, Diag. #    214  SI_Tsrf   vol(   1 ): 1.189E+14  Parms: SM  C   M1      
    use Counter Mate  #    211  SI_Fract  vol(   1 ): 1.289E+15 integral 1.189E+14
 Compute Stats, Diag. #    214  SI_Tsrf   vol(   3 ): 1.294E+14  Parms: SM  C   M1      
    use Counter Mate  #    211  SI_Fract  vol(   3 ): 7.935E+14 integral 1.294E+14
 Compute Stats, Diag. #    215  SI_Tice1  vol(   0 ): 2.483E+14  Parms: SM  C   M1      
    use Counter Mate  #    211  SI_Fract  vol(   0 ): 3.639E+15 integral 2.483E+14
 Compute Stats, Diag. #    215  SI_Tice1  vol(   1 ): 1.189E+14  Parms: SM  C   M1      
    use Counter Mate  #    211  SI_Fract  vol(   1 ): 1.289E+15 integral 1.189E+14
 Compute Stats, Diag. #    215  SI_Tice1  vol(   3 ): 1.294E+14  Parms: SM  C   M1      
    use Counter Mate  #    211  SI_Fract  vol(   3 ): 7.935E+14 integral 1.294E+14
 Compute Stats, Diag. #    216  SI_Tice2  vol(   0 ): 2.483E+14  Parms: SM  C   M1      
    use Counter Mate  #    211  SI_Fract  vol(   0 ): 3.639E+15 integral 2.483E+14
 Compute Stats, Diag. #    216  SI_Tice2  vol(   1 ): 1.189E+14  Parms: SM  C   M1      
    use Counter Mate  #    211  SI_Fract  vol(   1 ): 1.289E+15 integral 1.189E+14
 Compute Stats, Diag. #    216  SI_Tice2  vol(   3 ): 1.294E+14  Parms: SM  C   M1      
    use Counter Mate  #    211  SI_Fract  vol(   3 ): 7.935E+14 integral 1.294E+14
 Compute Stats, Diag. #    217  SI_Qice1  vol(   0 ): 1.136E+15  Parms: SM  C   M1      
    use Counter Mate  #    212  SI_Thick  vol(   0 ): 2.483E+14 integral 1.136E+15
 Compute Stats, Diag. #    217  SI_Qice1  vol(   1 ): 6.824E+14  Parms: SM  C   M1      
    use Counter Mate  #    212  SI_Thick  vol(   1 ): 1.189E+14 integral 6.824E+14
 Compute Stats, Diag. #    217  SI_Qice1  vol(   3 ): 4.532E+14  Parms: SM  C   M1      
    use Counter Mate  #    212  SI_Thick  vol(   3 ): 1.294E+14 integral 4.532E+14
 Compute Stats, Diag. #    218  SI_Qice2  vol(   0 ): 1.136E+15  Parms: SM  C   M1      
    use Counter Mate  #    212  SI_Thick  vol(   0 ): 2.483E+14 integral 1.136E+15
 Compute Stats, Diag. #    218  SI_Qice2  vol(   1 ): 6.824E+14  Parms: SM  C   M1      
    use Counter Mate  #    212  SI_Thick  vol(   1 ): 1.189E+14 integral 6.824E+14
 Compute Stats, Diag. #    218  SI_Qice2  vol(   3 ): 4.532E+14  Parms: SM  C   M1      
    use Counter Mate  #    212  SI_Thick  vol(   3 ): 1.294E+14 integral 4.532E+14
 Compute Stats, Diag. #    222  SIsnwPrc  vol(   0 ): 2.483E+14  Parms: SM  C   M1      
    use Counter Mate  #    220  SI_FrcFx  vol(   0 ): 3.639E+15 integral 2.483E+14
 Compute Stats, Diag. #    222  SIsnwPrc  vol(   1 ): 1.189E+14  Parms: SM  C   M1      
    use Counter Mate  #    220  SI_FrcFx  vol(   1 ): 1.289E+15 integral 1.189E+14
 Compute Stats, Diag. #    222  SIsnwPrc  vol(   3 ): 1.294E+14  Parms: SM  C   M1      
    use Counter Mate  #    220  SI_FrcFx  vol(   3 ): 7.935E+14 integral 1.294E+14
 Compute Stats, Diag. #    221  SIalbedo  vol(   0 ): 2.483E+14  Parms: SM PC   M1      
    use Counter Mate  #    220  SI_FrcFx  vol(   0 ): 3.639E+15 integral 2.483E+14
 Compute Stats, Diag. #    221  SIalbedo  vol(   1 ): 1.189E+14  Parms: SM PC   M1      
    use Counter Mate  #    220  SI_FrcFx  vol(   1 ): 1.289E+15 integral 1.189E+14
 Compute Stats, Diag. #    221  SIalbedo  vol(   3 ): 1.294E+14  Parms: SM PC   M1      
    use Counter Mate  #    220  SI_FrcFx  vol(   3 ): 7.935E+14 integral 1.294E+14
 Compute Stats, Diag. #    219  SIsnwAge  vol(   0 ): 3.639E+15  Parms: SM P    M1      
 Compute Stats, Diag. #    219  SIsnwAge  vol(   1 ): 1.289E+15  Parms: SM P    M1      
 Compute Stats, Diag. #    219  SIsnwAge  vol(   3 ): 7.935E+14  Parms: SM P    M1      
 Compute Stats, Diag. #    225  SIflx2oc  vol(   0 ): 3.639E+15  Parms: SM      M1      
 Compute Stats, Diag. #    225  SIflx2oc  vol(   1 ): 1.289E+15  Parms: SM      M1      
 Compute Stats, Diag. #    225  SIflx2oc  vol(   3 ): 7.935E+14  Parms: SM      M1      
 Compute Stats, Diag. #    226  SIfrw2oc  vol(   0 ): 3.639E+15  Parms: SM      M1      
 Compute Stats, Diag. #    226  SIfrw2oc  vol(   1 ): 1.289E+15  Parms: SM      M1      
 Compute Stats, Diag. #    226  SIfrw2oc  vol(   3 ): 7.935E+14  Parms: SM      M1      
 Compute Stats, Diag. #    227  SIsaltFx  vol(   0 ): 3.639E+15  Parms: SM      M1      
 Compute Stats, Diag. #    227  SIsaltFx  vol(   1 ): 1.289E+15  Parms: SM      M1      
 Compute Stats, Diag. #    227  SIsaltFx  vol(   3 ): 7.935E+14  Parms: SM      M1      
 Compute Stats, Diag. #    223  SIflxAtm  vol(   0 ): 3.639E+15  Parms: SM      M1      
 Compute Stats, Diag. #    223  SIflxAtm  vol(   1 ): 1.289E+15  Parms: SM      M1      
 Compute Stats, Diag. #    223  SIflxAtm  vol(   3 ): 7.935E+14  Parms: SM      M1      
 Compute Stats, Diag. #    224  SIfrwAtm  vol(   0 ): 3.639E+15  Parms: SM      M1      
 Compute Stats, Diag. #    224  SIfrwAtm  vol(   1 ): 1.289E+15  Parms: SM      M1      
 Compute Stats, Diag. #    224  SIfrwAtm  vol(   3 ): 7.935E+14  Parms: SM      M1      
 BULKF_FIELDS_LOAD,     36010 : iP,iLd,i0,i1=   12    1   12    1 ; Wght=  0.1666666667  0.8333333333
 EXTERNAL_FIELDS_LOAD,     36010 : iP,iLd,i0,i1=   12    1   12    1 ; Wght=  0.1666666667  0.8333333333
 cg2d: Sum(rhs),rhsMax =   3.91430142302168E+02  2.29949386886252E+02
(PID.TID 0000.0001)                    cg2d_init_res =    2.65469935529670E+00
(PID.TID 0000.0001)                       cg2d_iters =    69
(PID.TID 0000.0001)                         cg2d_res =    5.65998513616192E-07
(PID.TID 0000.0001) // =======================================================
(PID.TID 0000.0001) // Begin MONITOR dynamic field statistics
(PID.TID 0000.0001) // =======================================================
(PID.TID 0000.0001) %MON time_tsnumber                =                 36011
(PID.TID 0000.0001) %MON time_secondsf                =   3.1113504000000E+09
(PID.TID 0000.0001) %MON dynstat_eta_max              =   7.2134360903322E-01
(PID.TID 0000.0001) %MON dynstat_eta_min              =  -1.1966126085378E+01
(PID.TID 0000.0001) %MON dynstat_eta_mean             =  -5.8219089425816E-01
(PID.TID 0000.0001) %MON dynstat_eta_sd               =   1.6995361262366E+00
(PID.TID 0000.0001) %MON dynstat_eta_del2             =   2.1308339324537E-02
(PID.TID 0000.0001) %MON dynstat_uvel_max             =   1.7429397309433E-01
(PID.TID 0000.0001) %MON dynstat_uvel_min             =  -2.6734385730313E-01
(PID.TID 0000.0001) %MON dynstat_uvel_mean            =  -5.2366643022114E-04
(PID.TID 0000.0001) %MON dynstat_uvel_sd              =   1.2972570392105E-02
(PID.TID 0000.0001) %MON dynstat_uvel_del2            =   5.8588045300364E-05
(PID.TID 0000.0001) %MON dynstat_vvel_max             =   1.9496409461059E-01
(PID.TID 0000.0001) %MON dynstat_vvel_min             =  -2.1139307616505E-01
(PID.TID 0000.0001) %MON dynstat_vvel_mean            =  -4.1969329686768E-04
(PID.TID 0000.0001) %MON dynstat_vvel_sd              =   1.3479353123271E-02
(PID.TID 0000.0001) %MON dynstat_vvel_del2            =   5.5976065321050E-05
(PID.TID 0000.0001) %MON dynstat_wvel_max             =   8.9147430873624E-05
(PID.TID 0000.0001) %MON dynstat_wvel_min             =  -1.7800718759359E-04
(PID.TID 0000.0001) %MON dynstat_wvel_mean            =  -1.2146279881057E-09
(PID.TID 0000.0001) %MON dynstat_wvel_sd              =   4.6213071179124E-06
(PID.TID 0000.0001) %MON dynstat_wvel_del2            =   4.0332712535807E-08
(PID.TID 0000.0001) %MON dynstat_theta_max            =   2.9936870396052E+01
(PID.TID 0000.0001) %MON dynstat_theta_min            =  -3.4216741673406E+00
(PID.TID 0000.0001) %MON dynstat_theta_mean           =   3.5034854153881E+00
(PID.TID 0000.0001) %MON dynstat_theta_sd             =   4.7497764225662E+00
(PID.TID 0000.0001) %MON dynstat_theta_del2           =   2.9662215432661E-03
(PID.TID 0000.0001) %MON dynstat_salt_max             =   4.0836863540116E+01
(PID.TID 0000.0001) %MON dynstat_salt_min             =   1.8036636154915E+01
(PID.TID 0000.0001) %MON dynstat_salt_mean            =   3.4756115946746E+01
(PID.TID 0000.0001) %MON dynstat_salt_sd              =   5.1180506881575E-01
(PID.TID 0000.0001) %MON dynstat_salt_del2            =   8.4043374508184E-04
(PID.TID 0000.0001) %MON forcing_qnet_max             =   8.0308307097179E+02
(PID.TID 0000.0001) %MON forcing_qnet_min             =  -2.3517228102507E+02
(PID.TID 0000.0001) %MON forcing_qnet_mean            =  -6.1221077892320E+00
(PID.TID 0000.0001) %MON forcing_qnet_sd              =   1.2034715701311E+02
(PID.TID 0000.0001) %MON forcing_qnet_del2            =   1.0552801483383E+00
(PID.TID 0000.0001) %MON forcing_qsw_max              =  -0.0000000000000E+00
(PID.TID 0000.0001) %MON forcing_qsw_min              =  -3.3991619471971E+02
(PID.TID 0000.0001) %MON forcing_qsw_mean             =  -1.8660428178935E+02
(PID.TID 0000.0001) %MON forcing_qsw_sd               =   7.9542888998743E+01
(PID.TID 0000.0001) %MON forcing_qsw_del2             =   6.6139123529223E-01
(PID.TID 0000.0001) %MON forcing_empmr_max            =   7.5874658033720E-04
(PID.TID 0000.0001) %MON forcing_empmr_min            =  -3.1398311726481E-04
(PID.TID 0000.0001) %MON forcing_empmr_mean           =  -4.9417564765208E-07
(PID.TID 0000.0001) %MON forcing_empmr_sd             =   4.9699299907768E-05
(PID.TID 0000.0001) %MON forcing_empmr_del2           =   1.0426710465193E-06
(PID.TID 0000.0001) %MON forcing_fu_max               =   2.4760593894036E-01
(PID.TID 0000.0001) %MON forcing_fu_min               =  -2.3438987632871E-01
(PID.TID 0000.0001) %MON forcing_fu_mean              =  -4.1130913075284E-03
(PID.TID 0000.0001) %MON forcing_fu_sd                =   6.4637716330841E-02
(PID.TID 0000.0001) %MON forcing_fu_del2              =   2.1715397508819E-04
(PID.TID 0000.0001) %MON forcing_fv_max               =   2.7964339616220E-01
(PID.TID 0000.0001) %MON forcing_fv_min               =  -3.3479896335931E-01
(PID.TID 0000.0001) %MON forcing_fv_mean              =  -1.3723756978131E-02
(PID.TID 0000.0001) %MON forcing_fv_sd                =   7.6010073816084E-02
(PID.TID 0000.0001) %MON forcing_fv_del2              =   2.4447772305236E-04
(PID.TID 0000.0001) %MON advcfl_uvel_max              =   7.5823789092990E-02
(PID.TID 0000.0001) %MON advcfl_vvel_max              =   8.4982102144830E-02
(PID.TID 0000.0001) %MON advcfl_wvel_max              =   5.8037060407872E-02
(PID.TID 0000.0001) %MON advcfl_W_hf_max              =   6.4114675895470E-02
(PID.TID 0000.0001) %MON pe_b_mean                    =  -1.9272639822441E-03
(PID.TID 0000.0001) %MON ke_max                       =   3.5634894025436E-02
(PID.TID 0000.0001) %MON ke_mean                      =   1.6181510727631E-04
(PID.TID 0000.0001) %MON ke_vol                       =   1.3395905788062E+18
(PID.TID 0000.0001) %MON vort_r_min                   =  -1.2580641306442E-06
(PID.TID 0000.0001) %MON vort_r_max                   =   1.3999207933306E-06
(PID.TID 0000.0001) %MON vort_a_mean                  =  -2.0549865324846E-05
(PID.TID 0000.0001) %MON vort_a_sd                    =   7.5259582321038E-05
(PID.TID 0000.0001) %MON vort_p_mean                  =  -2.4787195461296E-05
(PID.TID 0000.0001) %MON vort_p_sd                    =   1.2817301277451E-04
(PID.TID 0000.0001) %MON surfExpan_theta_mean         =   7.9380557062575E-08
(PID.TID 0000.0001) %MON surfExpan_salt_mean          =   1.9276036303572E-08
(PID.TID 0000.0001) // =======================================================
(PID.TID 0000.0001) // End MONITOR dynamic field statistics
(PID.TID 0000.0001) // =======================================================
(PID.TID 0000.0001) // =======================================================
(PID.TID 0000.0001) // Begin MONITOR Therm.SeaIce statistics
(PID.TID 0000.0001) // =======================================================
(PID.TID 0000.0001) %MON thSI_time_sec                =   3.1113504000000E+09
(PID.TID 0000.0001) %MON thSI_Ice_Area_G              =   2.4960661702424E+13
(PID.TID 0000.0001) %MON thSI_Ice_Area_S              =   1.1630147136144E+13
(PID.TID 0000.0001) %MON thSI_Ice_Area_N              =   1.3330514566280E+13
(PID.TID 0000.0001) %MON thSI_IceH_ave_G              =   4.5572979137136E+00
(PID.TID 0000.0001) %MON thSI_IceH_ave_S              =   5.8227225087089E+00
(PID.TID 0000.0001) %MON thSI_IceH_ave_N              =   3.4532839496376E+00
(PID.TID 0000.0001) %MON thSI_IceH_max_S              =   1.0000000000000E+01
(PID.TID 0000.0001) %MON thSI_IceH_max_N              =   1.0000000000000E+01
(PID.TID 0000.0001) %MON thSI_SnwH_ave_G              =   1.0092428002398E+00
(PID.TID 0000.0001) %MON thSI_SnwH_ave_S              =   1.7491204710120E+00
(PID.TID 0000.0001) %MON thSI_SnwH_ave_N              =   3.6373987302393E-01
(PID.TID 0000.0001) %MON thSI_SnwH_max_S              =   4.0933689960756E+00
(PID.TID 0000.0001) %MON thSI_SnwH_max_N              =   4.1039029140131E+00
(PID.TID 0000.0001) %MON thSI_Tsrf_ave_G              =  -1.7519342402676E+01
(PID.TID 0000.0001) %MON thSI_Tsrf_ave_S              =  -1.2181569585994E-01
(PID.TID 0000.0001) %MON thSI_Tsrf_ave_N              =  -3.2697735884732E+01
(PID.TID 0000.0001) %MON thSI_Tsrf_min_S              =  -5.4663954164831E+00
(PID.TID 0000.0001) %MON thSI_Tsrf_min_N              =  -4.7387246039070E+01
(PID.TID 0000.0001) %MON thSI_Tsrf_max_S              =   0.0000000000000E+00
(PID.TID 0000.0001) %MON thSI_Tsrf_max_N              =  -4.6893180703406E+00
(PID.TID 0000.0001) %MON thSI_Tic1_ave_G              =  -8.5706460011658E+00
(PID.TID 0000.0001) %MON thSI_Tic1_ave_S              =  -4.9273122947325E+00
(PID.TID 0000.0001) %MON thSI_Tic1_ave_N              =  -1.3930229613750E+01
(PID.TID 0000.0001) %MON thSI_Tic1_min_S              =  -1.5062924635066E+01
(PID.TID 0000.0001) %MON thSI_Tic1_min_N              =  -2.1336226922329E+01
(PID.TID 0000.0001) %MON thSI_Tic1_max_S              =  -1.7796761104910E-01
(PID.TID 0000.0001) %MON thSI_Tic1_max_N              =  -7.9925795600029E-01
(PID.TID 0000.0001) %MON thSI_Tic2_ave_G              =  -3.8792217022166E+00
(PID.TID 0000.0001) %MON thSI_Tic2_ave_S              =  -3.0653745460771E+00
(PID.TID 0000.0001) %MON thSI_Tic2_ave_N              =  -5.0764444198313E+00
(PID.TID 0000.0001) %MON thSI_Tic2_min_S              =  -8.4936461777186E+00
(PID.TID 0000.0001) %MON thSI_Tic2_min_N              =  -7.7611112794952E+00
(PID.TID 0000.0001) %MON thSI_Tic2_max_S              =  -1.0860952665139E+00
(PID.TID 0000.0001) %MON thSI_Tic2_max_N              =  -1.3180933147086E+00
(PID.TID 0000.0001) %MON thSI_TotEnerg_G              =  -3.8111689123469E+22
(PID.TID 0000.0001) // =======================================================
(PID.TID 0000.0001) // End MONITOR Therm.SeaIce statistics
(PID.TID 0000.0001) // =======================================================
 Computing Diagnostic #     23  ETAN         Counter:       1   Parms: SM      M1      
 Compute Stats, Diag. #     23  ETAN      vol(   0 ): 3.639E+14  Parms: SM      M1      
 Compute Stats, Diag. #     26  THETA     vol(   0 ): 1.340E+18  Parms: SMR     MR      
 Compute Stats, Diag. #     27  SALT      vol(   0 ): 1.340E+18  Parms: SMR     MR      
 BULKF_FIELDS_LOAD,     36011 : iP,iLd,i0,i1=   12    1   12    1 ; Wght=  0.1333333333  0.8666666667
 EXTERNAL_FIELDS_LOAD,     36011 : iP,iLd,i0,i1=   12    1   12    1 ; Wght=  0.1333333333  0.8666666667
 cg2d: Sum(rhs),rhsMax =   3.91394354824639E+02  2.30056289629764E+02
(PID.TID 0000.0001)                    cg2d_init_res =    2.65157663379169E+00
(PID.TID 0000.0001)                       cg2d_iters =    69
(PID.TID 0000.0001)                         cg2d_res =    5.67356858238608E-07
(PID.TID 0000.0001) // =======================================================
(PID.TID 0000.0001) // Begin MONITOR dynamic field statistics
(PID.TID 0000.0001) // =======================================================
(PID.TID 0000.0001) %MON time_tsnumber                =                 36012
(PID.TID 0000.0001) %MON time_secondsf                =   3.1114368000000E+09
(PID.TID 0000.0001) %MON dynstat_eta_max              =   7.1998491634252E-01
(PID.TID 0000.0001) %MON dynstat_eta_min              =  -1.1963458821377E+01
(PID.TID 0000.0001) %MON dynstat_eta_mean             =  -5.8213766600286E-01
(PID.TID 0000.0001) %MON dynstat_eta_sd               =   1.6990481324794E+00
(PID.TID 0000.0001) %MON dynstat_eta_del2             =   2.1317226568190E-02
(PID.TID 0000.0001) %MON dynstat_uvel_max             =   1.7409176187997E-01
(PID.TID 0000.0001) %MON dynstat_uvel_min             =  -2.6689498521051E-01
(PID.TID 0000.0001) %MON dynstat_uvel_mean            =  -5.2311896190182E-04
(PID.TID 0000.0001) %MON dynstat_uvel_sd              =   1.2970908625649E-02
(PID.TID 0000.0001) %MON dynstat_uvel_del2            =   5.8567847545850E-05
(PID.TID 0000.0001) %MON dynstat_vvel_max             =   1.9475928025451E-01
(PID.TID 0000.0001) %MON dynstat_vvel_min             =  -2.1143657391736E-01
(PID.TID 0000.0001) %MON dynstat_vvel_mean            =  -4.1904277200420E-04
(PID.TID 0000.0001) %MON dynstat_vvel_sd              =   1.3477673203007E-02
(PID.TID 0000.0001) %MON dynstat_vvel_del2            =   5.5945146073720E-05
(PID.TID 0000.0001) %MON dynstat_wvel_max             =   8.9861083558252E-05
(PID.TID 0000.0001) %MON dynstat_wvel_min             =  -1.7784243883589E-04
(PID.TID 0000.0001) %MON dynstat_wvel_mean            =  -1.2395271809178E-09
(PID.TID 0000.0001) %MON dynstat_wvel_sd              =   4.6212218546411E-06
(PID.TID 0000.0001) %MON dynstat_wvel_del2            =   4.0328281107146E-08
(PID.TID 0000.0001) %MON dynstat_theta_max            =   2.9915750581578E+01
(PID.TID 0000.0001) %MON dynstat_theta_min            =  -3.4398617261939E+00
(PID.TID 0000.0001) %MON dynstat_theta_mean           =   3.5035551044112E+00
(PID.TID 0000.0001) %MON dynstat_theta_sd             =   4.7499009701118E+00
(PID.TID 0000.0001) %MON dynstat_theta_del2           =   2.9694329517543E-03
(PID.TID 0000.0001) %MON dynstat_salt_max             =   4.0837991161723E+01
(PID.TID 0000.0001) %MON dynstat_salt_min             =   1.8037366082630E+01
(PID.TID 0000.0001) %MON dynstat_salt_mean            =   3.4756116432090E+01
(PID.TID 0000.0001) %MON dynstat_salt_sd              =   5.1179759232446E-01
(PID.TID 0000.0001) %MON dynstat_salt_del2            =   8.4093078752605E-04
(PID.TID 0000.0001) %MON forcing_qnet_max             =   8.0618610138088E+02
(PID.TID 0000.0001) %MON forcing_qnet_min             =  -2.3479608749932E+02
(PID.TID 0000.0001) %MON forcing_qnet_mean            =  -6.1971295725621E+00
(PID.TID 0000.0001) %MON forcing_qnet_sd              =   1.2039636602841E+02
(PID.TID 0000.0001) %MON forcing_qnet_del2            =   1.0682567923156E+00
(PID.TID 0000.0001) %MON forcing_qsw_max              =  -0.0000000000000E+00
(PID.TID 0000.0001) %MON forcing_qsw_min              =  -3.3971215207251E+02
(PID.TID 0000.0001) %MON forcing_qsw_mean             =  -1.8660841126292E+02
(PID.TID 0000.0001) %MON forcing_qsw_sd               =   7.9414219574773E+01
(PID.TID 0000.0001) %MON forcing_qsw_del2             =   6.5859164906728E-01
(PID.TID 0000.0001) %MON forcing_empmr_max            =   7.4979451990666E-04
(PID.TID 0000.0001) %MON forcing_empmr_min            =  -3.1808627246117E-04
(PID.TID 0000.0001) %MON forcing_empmr_mean           =  -6.3763014160960E-07
(PID.TID 0000.0001) %MON forcing_empmr_sd             =   4.9425825354371E-05
(PID.TID 0000.0001) %MON forcing_empmr_del2           =   1.0347179112851E-06
(PID.TID 0000.0001) %MON forcing_fu_max               =   2.4787031343914E-01
(PID.TID 0000.0001) %MON forcing_fu_min               =  -2.3765894517478E-01
(PID.TID 0000.0001) %MON forcing_fu_mean              =  -4.0696123717950E-03
(PID.TID 0000.0001) %MON forcing_fu_sd                =   6.4780529365136E-02
(PID.TID 0000.0001) %MON forcing_fu_del2              =   2.1957106468296E-04
(PID.TID 0000.0001) %MON forcing_fv_max               =   2.8232663773484E-01
(PID.TID 0000.0001) %MON forcing_fv_min               =  -3.3558686729325E-01
(PID.TID 0000.0001) %MON forcing_fv_mean              =  -1.3727682524059E-02
(PID.TID 0000.0001) %MON forcing_fv_sd                =   7.6151553873676E-02
(PID.TID 0000.0001) %MON forcing_fv_del2              =   2.4658872547121E-04
(PID.TID 0000.0001) %MON advcfl_uvel_max              =   7.5696480453007E-02
(PID.TID 0000.0001) %MON advcfl_vvel_max              =   8.4892826452483E-02
(PID.TID 0000.0001) %MON advcfl_wvel_max              =   5.7983346095929E-02
(PID.TID 0000.0001) %MON advcfl_W_hf_max              =   6.4055361342294E-02
(PID.TID 0000.0001) %MON pe_b_mean                    =  -1.9262742579502E-03
(PID.TID 0000.0001) %MON ke_max                       =   3.5502464042536E-02
(PID.TID 0000.0001) %MON ke_mean                      =   1.6177379299822E-04
(PID.TID 0000.0001) %MON ke_vol                       =   1.3395905938176E+18
(PID.TID 0000.0001) %MON vort_r_min                   =  -1.2632044223563E-06
(PID.TID 0000.0001) %MON vort_r_max                   =   1.4031229250815E-06
(PID.TID 0000.0001) %MON vort_a_mean                  =  -2.0549865324846E-05
(PID.TID 0000.0001) %MON vort_a_sd                    =   7.5259582249562E-05
(PID.TID 0000.0001) %MON vort_p_mean                  =  -2.4787194883125E-05
(PID.TID 0000.0001) %MON vort_p_sd                    =   1.2817301417778E-04
(PID.TID 0000.0001) %MON surfExpan_theta_mean         =   7.8714160077507E-08
(PID.TID 0000.0001) %MON surfExpan_salt_mean          =   1.9411256023185E-08
(PID.TID 0000.0001) // =======================================================
(PID.TID 0000.0001) // End MONITOR dynamic field statistics
(PID.TID 0000.0001) // =======================================================
(PID.TID 0000.0001) // =======================================================
(PID.TID 0000.0001) // Begin MONITOR Therm.SeaIce statistics
(PID.TID 0000.0001) // =======================================================
(PID.TID 0000.0001) %MON thSI_time_sec                =   3.1114368000000E+09
(PID.TID 0000.0001) %MON thSI_Ice_Area_G              =   2.4959628154351E+13
(PID.TID 0000.0001) %MON thSI_Ice_Area_S              =   1.1597619473649E+13
(PID.TID 0000.0001) %MON thSI_Ice_Area_N              =   1.3362008680702E+13
(PID.TID 0000.0001) %MON thSI_IceH_ave_G              =   4.5571296680495E+00
(PID.TID 0000.0001) %MON thSI_IceH_ave_S              =   5.8321987774223E+00
(PID.TID 0000.0001) %MON thSI_IceH_ave_N              =   3.4504273236282E+00
(PID.TID 0000.0001) %MON thSI_IceH_max_S              =   1.0000000000000E+01
(PID.TID 0000.0001) %MON thSI_IceH_max_N              =   1.0000000000000E+01
(PID.TID 0000.0001) %MON thSI_SnwH_ave_G              =   1.0060597011892E+00
(PID.TID 0000.0001) %MON thSI_SnwH_ave_S              =   1.7436920820577E+00
(PID.TID 0000.0001) %MON thSI_SnwH_ave_N              =   3.6582814101141E-01
(PID.TID 0000.0001) %MON thSI_SnwH_max_S              =   4.0933033600768E+00
(PID.TID 0000.0001) %MON thSI_SnwH_max_N              =   4.1042562138863E+00
(PID.TID 0000.0001) %MON thSI_Tsrf_ave_G              =  -1.7605553713766E+01
(PID.TID 0000.0001) %MON thSI_Tsrf_ave_S              =  -1.4447212181500E-01
(PID.TID 0000.0001) %MON thSI_Tsrf_ave_N              =  -3.2760983166095E+01
(PID.TID 0000.0001) %MON thSI_Tsrf_min_S              =  -5.4823886114732E+00
(PID.TID 0000.0001) %MON thSI_Tsrf_min_N              =  -4.7502281938202E+01
(PID.TID 0000.0001) %MON thSI_Tsrf_max_S              =   0.0000000000000E+00
(PID.TID 0000.0001) %MON thSI_Tsrf_max_N              =  -6.2637882397280E+00
(PID.TID 0000.0001) %MON thSI_Tic1_ave_G              =  -8.5900242779529E+00
(PID.TID 0000.0001) %MON thSI_Tic1_ave_S              =  -4.9023026954660E+00
(PID.TID 0000.0001) %MON thSI_Tic1_ave_N              =  -1.4000241017844E+01
(PID.TID 0000.0001) %MON thSI_Tic1_min_S              =  -1.4927330018753E+01
(PID.TID 0000.0001) %MON thSI_Tic1_min_N              =  -2.1393168854234E+01
(PID.TID 0000.0001) %MON thSI_Tic1_max_S              =  -1.7192321522126E-01
(PID.TID 0000.0001) %MON thSI_Tic1_max_N              =  -8.2070437010303E-01
(PID.TID 0000.0001) %MON thSI_Tic2_ave_G              =  -3.8897182989768E+00
(PID.TID 0000.0001) %MON thSI_Tic2_ave_S              =  -3.0614198755576E+00
(PID.TID 0000.0001) %MON thSI_Tic2_ave_N              =  -5.1049060228251E+00
(PID.TID 0000.0001) %MON thSI_Tic2_min_S              =  -8.4612722881802E+00
(PID.TID 0000.0001) %MON thSI_Tic2_min_N              =  -7.7895915127278E+00
(PID.TID 0000.0001) %MON thSI_Tic2_max_S              =  -1.0567670893930E+00
(PID.TID 0000.0001) %MON thSI_Tic2_max_N              =  -1.3332500909772E+00
(PID.TID 0000.0001) %MON thSI_TotEnerg_G              =  -3.8102317582314E+22
(PID.TID 0000.0001) // =======================================================
(PID.TID 0000.0001) // End MONITOR Therm.SeaIce statistics
(PID.TID 0000.0001) // =======================================================
 BULKF_FIELDS_LOAD,     36012 : iP,iLd,i0,i1=   12    1   12    1 ; Wght=  0.1000000000  0.9000000000
 EXTERNAL_FIELDS_LOAD,     36012 : iP,iLd,i0,i1=   12    1   12    1 ; Wght=  0.1000000000  0.9000000000
 cg2d: Sum(rhs),rhsMax =   3.91348272271389E+02  2.30165112123164E+02
(PID.TID 0000.0001)                    cg2d_init_res =    2.62880523219035E+00
(PID.TID 0000.0001)                       cg2d_iters =    69
(PID.TID 0000.0001)                         cg2d_res =    5.60159340652910E-07
(PID.TID 0000.0001) // =======================================================
(PID.TID 0000.0001) // Begin MONITOR dynamic field statistics
(PID.TID 0000.0001) // =======================================================
(PID.TID 0000.0001) %MON time_tsnumber                =                 36013
(PID.TID 0000.0001) %MON time_secondsf                =   3.1115232000000E+09
(PID.TID 0000.0001) %MON dynstat_eta_max              =   7.1867492565465E-01
(PID.TID 0000.0001) %MON dynstat_eta_min              =  -1.1960638946412E+01
(PID.TID 0000.0001) %MON dynstat_eta_mean             =  -5.8206912543844E-01
(PID.TID 0000.0001) %MON dynstat_eta_sd               =   1.6985631256130E+00
(PID.TID 0000.0001) %MON dynstat_eta_del2             =   2.1326331862661E-02
(PID.TID 0000.0001) %MON dynstat_uvel_max             =   1.7383923997784E-01
(PID.TID 0000.0001) %MON dynstat_uvel_min             =  -2.6643270121791E-01
(PID.TID 0000.0001) %MON dynstat_uvel_mean            =  -5.2249828596187E-04
(PID.TID 0000.0001) %MON dynstat_uvel_sd              =   1.2969437725352E-02
(PID.TID 0000.0001) %MON dynstat_uvel_del2            =   5.8549735764862E-05
(PID.TID 0000.0001) %MON dynstat_vvel_max             =   1.9449490024259E-01
(PID.TID 0000.0001) %MON dynstat_vvel_min             =  -2.1147499748063E-01
(PID.TID 0000.0001) %MON dynstat_vvel_mean            =  -4.1845205588604E-04
(PID.TID 0000.0001) %MON dynstat_vvel_sd              =   1.3475589763662E-02
(PID.TID 0000.0001) %MON dynstat_vvel_del2            =   5.5915816217803E-05
(PID.TID 0000.0001) %MON dynstat_wvel_max             =   9.0537526257168E-05
(PID.TID 0000.0001) %MON dynstat_wvel_min             =  -1.7764753312473E-04
(PID.TID 0000.0001) %MON dynstat_wvel_mean            =  -1.2710404166214E-09
(PID.TID 0000.0001) %MON dynstat_wvel_sd              =   4.6212245455274E-06
(PID.TID 0000.0001) %MON dynstat_wvel_del2            =   4.0322289674980E-08
(PID.TID 0000.0001) %MON dynstat_theta_max            =   2.9894770887127E+01
(PID.TID 0000.0001) %MON dynstat_theta_min            =  -3.4580252673173E+00
(PID.TID 0000.0001) %MON dynstat_theta_mean           =   3.5036251055867E+00
(PID.TID 0000.0001) %MON dynstat_theta_sd             =   4.7500311301868E+00
(PID.TID 0000.0001) %MON dynstat_theta_del2           =   2.9740359654624E-03
(PID.TID 0000.0001) %MON dynstat_salt_max             =   4.0838986490964E+01
(PID.TID 0000.0001) %MON dynstat_salt_min             =   1.8038470006785E+01
(PID.TID 0000.0001) %MON dynstat_salt_mean            =   3.4756116802553E+01
(PID.TID 0000.0001) %MON dynstat_salt_sd              =   5.1178903978837E-01
(PID.TID 0000.0001) %MON dynstat_salt_del2            =   8.4207155886719E-04
(PID.TID 0000.0001) %MON forcing_qnet_max             =   8.0926481889710E+02
(PID.TID 0000.0001) %MON forcing_qnet_min             =  -2.3442174026146E+02
(PID.TID 0000.0001) %MON forcing_qnet_mean            =  -6.2280579359493E+00
(PID.TID 0000.0001) %MON forcing_qnet_sd              =   1.2045341265537E+02
(PID.TID 0000.0001) %MON forcing_qnet_del2            =   1.0657631798711E+00
(PID.TID 0000.0001) %MON forcing_qsw_max              =  -0.0000000000000E+00
(PID.TID 0000.0001) %MON forcing_qsw_min              =  -3.3950810942532E+02
(PID.TID 0000.0001) %MON forcing_qsw_mean             =  -1.8661640051965E+02
(PID.TID 0000.0001) %MON forcing_qsw_sd               =   7.9280797692156E+01
(PID.TID 0000.0001) %MON forcing_qsw_del2             =   6.5615450396860E-01
(PID.TID 0000.0001) %MON forcing_empmr_max            =   4.0677628965183E-04
(PID.TID 0000.0001) %MON forcing_empmr_min            =  -3.2063163629681E-04
(PID.TID 0000.0001) %MON forcing_empmr_mean           =  -8.2105884465601E-07
(PID.TID 0000.0001) %MON forcing_empmr_sd             =   4.8530133510395E-05
(PID.TID 0000.0001) %MON forcing_empmr_del2           =   9.3974873264213E-07
(PID.TID 0000.0001) %MON forcing_fu_max               =   2.4813468793793E-01
(PID.TID 0000.0001) %MON forcing_fu_min               =  -2.4114197747619E-01
(PID.TID 0000.0001) %MON forcing_fu_mean              =  -4.0261334360615E-03
(PID.TID 0000.0001) %MON forcing_fu_sd                =   6.4936298899217E-02
(PID.TID 0000.0001) %MON forcing_fu_del2              =   2.2218555584494E-04
(PID.TID 0000.0001) %MON forcing_fv_max               =   2.8500987930747E-01
(PID.TID 0000.0001) %MON forcing_fv_min               =  -3.3637477122718E-01
(PID.TID 0000.0001) %MON forcing_fv_mean              =  -1.3731608069986E-02
(PID.TID 0000.0001) %MON forcing_fv_sd                =   7.6302994349070E-02
(PID.TID 0000.0001) %MON forcing_fv_del2              =   2.4887295503804E-04
(PID.TID 0000.0001) %MON advcfl_uvel_max              =   7.5565367943785E-02
(PID.TID 0000.0001) %MON advcfl_vvel_max              =   8.4777586929929E-02
(PID.TID 0000.0001) %MON advcfl_wvel_max              =   5.7919799479158E-02
(PID.TID 0000.0001) %MON advcfl_W_hf_max              =   6.3985189089376E-02
(PID.TID 0000.0001) %MON pe_b_mean                    =  -1.9252926706306E-03
(PID.TID 0000.0001) %MON ke_max                       =   3.5367472025533E-02
(PID.TID 0000.0001) %MON ke_mean                      =   1.6172970201898E-04
(PID.TID 0000.0001) %MON ke_vol                       =   1.3395906131867E+18
(PID.TID 0000.0001) %MON vort_r_min                   =  -1.2683575705971E-06
(PID.TID 0000.0001) %MON vort_r_max                   =   1.4061523628749E-06
(PID.TID 0000.0001) %MON vort_a_mean                  =  -2.0549865324846E-05
(PID.TID 0000.0001) %MON vort_a_sd                    =   7.5259582175931E-05
(PID.TID 0000.0001) %MON vort_p_mean                  =  -2.4787194241356E-05
(PID.TID 0000.0001) %MON vort_p_sd                    =   1.2817301510093E-04
(PID.TID 0000.0001) %MON surfExpan_theta_mean         =   7.7982349122710E-08
(PID.TID 0000.0001) %MON surfExpan_salt_mean          =   1.9600822642680E-08
(PID.TID 0000.0001) // =======================================================
(PID.TID 0000.0001) // End MONITOR dynamic field statistics
(PID.TID 0000.0001) // =======================================================
(PID.TID 0000.0001) // =======================================================
(PID.TID 0000.0001) // Begin MONITOR Therm.SeaIce statistics
(PID.TID 0000.0001) // =======================================================
(PID.TID 0000.0001) %MON thSI_time_sec                =   3.1115232000000E+09
(PID.TID 0000.0001) %MON thSI_Ice_Area_G              =   2.4943677047226E+13
(PID.TID 0000.0001) %MON thSI_Ice_Area_S              =   1.1559719058028E+13
(PID.TID 0000.0001) %MON thSI_Ice_Area_N              =   1.3383957989198E+13
(PID.TID 0000.0001) %MON thSI_IceH_ave_G              =   4.5594644775678E+00
(PID.TID 0000.0001) %MON thSI_IceH_ave_S              =   5.8444166744268E+00
(PID.TID 0000.0001) %MON thSI_IceH_ave_N              =   3.4496517890736E+00
(PID.TID 0000.0001) %MON thSI_IceH_max_S              =   1.0000000000000E+01
(PID.TID 0000.0001) %MON thSI_IceH_max_N              =   1.0000000000000E+01
(PID.TID 0000.0001) %MON thSI_SnwH_ave_G              =   1.0034549983151E+00
(PID.TID 0000.0001) %MON thSI_SnwH_ave_S              =   1.7389840723237E+00
(PID.TID 0000.0001) %MON thSI_SnwH_ave_N              =   3.6817883700224E-01
(PID.TID 0000.0001) %MON thSI_SnwH_max_S              =   4.0932415300378E+00
(PID.TID 0000.0001) %MON thSI_SnwH_max_N              =   4.1046204809719E+00
(PID.TID 0000.0001) %MON thSI_Tsrf_ave_G              =  -1.7680969142246E+01
(PID.TID 0000.0001) %MON thSI_Tsrf_ave_S              =  -1.2888278045630E-01
(PID.TID 0000.0001) %MON thSI_Tsrf_ave_N              =  -3.2840698976148E+01
(PID.TID 0000.0001) %MON thSI_Tsrf_min_S              =  -5.4983441210181E+00
(PID.TID 0000.0001) %MON thSI_Tsrf_min_N              =  -4.7617382876311E+01
(PID.TID 0000.0001) %MON thSI_Tsrf_max_S              =   0.0000000000000E+00
(PID.TID 0000.0001) %MON thSI_Tsrf_max_N              =  -6.9934503789172E+00
(PID.TID 0000.0001) %MON thSI_Tic1_ave_G              =  -8.6112227690993E+00
(PID.TID 0000.0001) %MON thSI_Tic1_ave_S              =  -4.8810312439900E+00
(PID.TID 0000.0001) %MON thSI_Tic1_ave_N              =  -1.4069552377327E+01
(PID.TID 0000.0001) %MON thSI_Tic1_min_S              =  -1.4793280942603E+01
(PID.TID 0000.0001) %MON thSI_Tic1_min_N              =  -2.1448235162558E+01
(PID.TID 0000.0001) %MON thSI_Tic1_max_S              =  -1.6625832707011E-01
(PID.TID 0000.0001) %MON thSI_Tic1_max_N              =  -8.4314222708264E-01
(PID.TID 0000.0001) %MON thSI_Tic2_ave_G              =  -3.9000692799012E+00
(PID.TID 0000.0001) %MON thSI_Tic2_ave_S              =  -3.0574585076077E+00
(PID.TID 0000.0001) %MON thSI_Tic2_ave_N              =  -5.1330481485897E+00
(PID.TID 0000.0001) %MON thSI_Tic2_min_S              =  -8.4288319448730E+00
(PID.TID 0000.0001) %MON thSI_Tic2_min_N              =  -7.8171731640846E+00
(PID.TID 0000.0001) %MON thSI_Tic2_max_S              =  -1.0102452020968E+00
(PID.TID 0000.0001) %MON thSI_Tic2_max_N              =  -1.3480054799471E+00
(PID.TID 0000.0001) %MON thSI_TotEnerg_G              =  -3.8091301655755E+22
(PID.TID 0000.0001) // =======================================================
(PID.TID 0000.0001) // End MONITOR Therm.SeaIce statistics
(PID.TID 0000.0001) // =======================================================
 BULKF_FIELDS_LOAD,     36013 : iP,iLd,i0,i1=   12    1   12    1 ; Wght=  0.0666666667  0.9333333333
 EXTERNAL_FIELDS_LOAD,     36013 : iP,iLd,i0,i1=   12    1   12    1 ; Wght=  0.0666666667  0.9333333333
 cg2d: Sum(rhs),rhsMax =   3.91298845077501E+02  2.30274254190926E+02
(PID.TID 0000.0001)                    cg2d_init_res =    2.60691002838173E+00
(PID.TID 0000.0001)                       cg2d_iters =    69
(PID.TID 0000.0001)                         cg2d_res =    5.55449790458303E-07
(PID.TID 0000.0001) // =======================================================
(PID.TID 0000.0001) // Begin MONITOR dynamic field statistics
(PID.TID 0000.0001) // =======================================================
(PID.TID 0000.0001) %MON time_tsnumber                =                 36014
(PID.TID 0000.0001) %MON time_secondsf                =   3.1116096000000E+09
(PID.TID 0000.0001) %MON dynstat_eta_max              =   7.1737406571450E-01
(PID.TID 0000.0001) %MON dynstat_eta_min              =  -1.1957664828542E+01
(PID.TID 0000.0001) %MON dynstat_eta_mean             =  -5.8199561024607E-01
(PID.TID 0000.0001) %MON dynstat_eta_sd               =   1.6980787240658E+00
(PID.TID 0000.0001) %MON dynstat_eta_del2             =   2.1333899123686E-02
(PID.TID 0000.0001) %MON dynstat_uvel_max             =   1.7354201187028E-01
(PID.TID 0000.0001) %MON dynstat_uvel_min             =  -2.6595693345356E-01
(PID.TID 0000.0001) %MON dynstat_uvel_mean            =  -5.2179966319361E-04
(PID.TID 0000.0001) %MON dynstat_uvel_sd              =   1.2968171050608E-02
(PID.TID 0000.0001) %MON dynstat_uvel_del2            =   5.8534012517426E-05
(PID.TID 0000.0001) %MON dynstat_vvel_max             =   1.9417552565883E-01
(PID.TID 0000.0001) %MON dynstat_vvel_min             =  -2.1150857462247E-01
(PID.TID 0000.0001) %MON dynstat_vvel_mean            =  -4.1790641267675E-04
(PID.TID 0000.0001) %MON dynstat_vvel_sd              =   1.3473142216071E-02
(PID.TID 0000.0001) %MON dynstat_vvel_del2            =   5.5888122749613E-05
(PID.TID 0000.0001) %MON dynstat_wvel_max             =   9.1166675419895E-05
(PID.TID 0000.0001) %MON dynstat_wvel_min             =  -1.7742754440959E-04
(PID.TID 0000.0001) %MON dynstat_wvel_mean            =  -1.2779393334173E-09
(PID.TID 0000.0001) %MON dynstat_wvel_sd              =   4.6211943319040E-06
(PID.TID 0000.0001) %MON dynstat_wvel_del2            =   4.0313155056779E-08
(PID.TID 0000.0001) %MON dynstat_theta_max            =   2.9876343273831E+01
(PID.TID 0000.0001) %MON dynstat_theta_min            =  -3.4761592780566E+00
(PID.TID 0000.0001) %MON dynstat_theta_mean           =   3.5036957835463E+00
(PID.TID 0000.0001) %MON dynstat_theta_sd             =   4.7501710039600E+00
(PID.TID 0000.0001) %MON dynstat_theta_del2           =   2.9773686941221E-03
(PID.TID 0000.0001) %MON dynstat_salt_max             =   4.0839850493815E+01
(PID.TID 0000.0001) %MON dynstat_salt_min             =   1.8043033340727E+01
(PID.TID 0000.0001) %MON dynstat_salt_mean            =   3.4756117154492E+01
(PID.TID 0000.0001) %MON dynstat_salt_sd              =   5.1178212214847E-01
(PID.TID 0000.0001) %MON dynstat_salt_del2            =   8.4238604606674E-04
(PID.TID 0000.0001) %MON forcing_qnet_max             =   8.1232886438962E+02
(PID.TID 0000.0001) %MON forcing_qnet_min             =  -2.3404919249347E+02
(PID.TID 0000.0001) %MON forcing_qnet_mean            =  -6.3145719217050E+00
(PID.TID 0000.0001) %MON forcing_qnet_sd              =   1.2058918944935E+02
(PID.TID 0000.0001) %MON forcing_qnet_del2            =   1.0786350693994E+00
(PID.TID 0000.0001) %MON forcing_qsw_max              =  -0.0000000000000E+00
(PID.TID 0000.0001) %MON forcing_qsw_min              =  -3.3930406677812E+02
(PID.TID 0000.0001) %MON forcing_qsw_mean             =  -1.8662910715224E+02
(PID.TID 0000.0001) %MON forcing_qsw_sd               =   7.9150341618642E+01
(PID.TID 0000.0001) %MON forcing_qsw_del2             =   6.5503564461603E-01
(PID.TID 0000.0001) %MON forcing_empmr_max            =   3.0854988006221E-04
(PID.TID 0000.0001) %MON forcing_empmr_min            =  -3.2186405136045E-04
(PID.TID 0000.0001) %MON forcing_empmr_mean           =  -8.8065074193245E-07
(PID.TID 0000.0001) %MON forcing_empmr_sd             =   4.8232299323486E-05
(PID.TID 0000.0001) %MON forcing_empmr_del2           =   9.1366980380562E-07
(PID.TID 0000.0001) %MON forcing_fu_max               =   2.4839906243671E-01
(PID.TID 0000.0001) %MON forcing_fu_min               =  -2.4462500977759E-01
(PID.TID 0000.0001) %MON forcing_fu_mean              =  -3.9826545003281E-03
(PID.TID 0000.0001) %MON forcing_fu_sd                =   6.5104931934298E-02
(PID.TID 0000.0001) %MON forcing_fu_del2              =   2.2499056699550E-04
(PID.TID 0000.0001) %MON forcing_fv_max               =   2.8769312088010E-01
(PID.TID 0000.0001) %MON forcing_fv_min               =  -3.3716267516111E-01
(PID.TID 0000.0001) %MON forcing_fv_mean              =  -1.3735533615913E-02
(PID.TID 0000.0001) %MON forcing_fv_sd                =   7.6464336061349E-02
(PID.TID 0000.0001) %MON forcing_fv_del2              =   2.5132568855654E-04
(PID.TID 0000.0001) %MON advcfl_uvel_max              =   7.5430431181126E-02
(PID.TID 0000.0001) %MON advcfl_vvel_max              =   8.4638376048288E-02
(PID.TID 0000.0001) %MON advcfl_wvel_max              =   5.7848074856560E-02
(PID.TID 0000.0001) %MON advcfl_W_hf_max              =   6.3905985826054E-02
(PID.TID 0000.0001) %MON pe_b_mean                    =  -1.9243177978858E-03
(PID.TID 0000.0001) %MON ke_max                       =   3.5229955589830E-02
(PID.TID 0000.0001) %MON ke_mean                      =   1.6168347957103E-04
(PID.TID 0000.0001) %MON ke_vol                       =   1.3395906381277E+18
(PID.TID 0000.0001) %MON vort_r_min                   =  -1.2734979596220E-06
(PID.TID 0000.0001) %MON vort_r_max                   =   1.4089723574486E-06
(PID.TID 0000.0001) %MON vort_a_mean                  =  -2.0549865324846E-05
(PID.TID 0000.0001) %MON vort_a_sd                    =   7.5259582101504E-05
(PID.TID 0000.0001) %MON vort_p_mean                  =  -2.4787193508990E-05
(PID.TID 0000.0001) %MON vort_p_sd                    =   1.2817301427036E-04
(PID.TID 0000.0001) %MON surfExpan_theta_mean         =   7.7079816487261E-08
(PID.TID 0000.0001) %MON surfExpan_salt_mean          =   1.9614683491387E-08
(PID.TID 0000.0001) // =======================================================
(PID.TID 0000.0001) // End MONITOR dynamic field statistics
(PID.TID 0000.0001) // =======================================================
(PID.TID 0000.0001) // =======================================================
(PID.TID 0000.0001) // Begin MONITOR Therm.SeaIce statistics
(PID.TID 0000.0001) // =======================================================
(PID.TID 0000.0001) %MON thSI_time_sec                =   3.1116096000000E+09
(PID.TID 0000.0001) %MON thSI_Ice_Area_G              =   2.4930008457878E+13
(PID.TID 0000.0001) %MON thSI_Ice_Area_S              =   1.1527344332254E+13
(PID.TID 0000.0001) %MON thSI_Ice_Area_N              =   1.3402664125624E+13
(PID.TID 0000.0001) %MON thSI_IceH_ave_G              =   4.5613187530343E+00
(PID.TID 0000.0001) %MON thSI_IceH_ave_S              =   5.8540059754721E+00
(PID.TID 0000.0001) %MON thSI_IceH_ave_N              =   3.4495061620991E+00
(PID.TID 0000.0001) %MON thSI_IceH_max_S              =   1.0000000000000E+01
(PID.TID 0000.0001) %MON thSI_IceH_max_N              =   1.0000000000000E+01
(PID.TID 0000.0001) %MON thSI_SnwH_ave_G              =   1.0007955860446E+00
(PID.TID 0000.0001) %MON thSI_SnwH_ave_S              =   1.7335009800397E+00
(PID.TID 0000.0001) %MON thSI_SnwH_ave_N              =   3.7061137106201E-01
(PID.TID 0000.0001) %MON thSI_SnwH_max_S              =   4.0931829494518E+00
(PID.TID 0000.0001) %MON thSI_SnwH_max_N              =   4.1049930860095E+00
(PID.TID 0000.0001) %MON thSI_Tsrf_ave_G              =  -1.7775516751607E+01
(PID.TID 0000.0001) %MON thSI_Tsrf_ave_S              =  -1.4831260831214E-01
(PID.TID 0000.0001) %MON thSI_Tsrf_ave_N              =  -3.2936297464317E+01
(PID.TID 0000.0001) %MON thSI_Tsrf_min_S              =  -5.5142622642452E+00
(PID.TID 0000.0001) %MON thSI_Tsrf_min_N              =  -4.7732550095249E+01
(PID.TID 0000.0001) %MON thSI_Tsrf_max_S              =   0.0000000000000E+00
(PID.TID 0000.0001) %MON thSI_Tsrf_max_N              =  -7.3680003115492E+00
(PID.TID 0000.0001) %MON thSI_Tic1_ave_G              =  -8.6303546479306E+00
(PID.TID 0000.0001) %MON thSI_Tic1_ave_S              =  -4.8569527413657E+00
(PID.TID 0000.0001) %MON thSI_Tic1_ave_N              =  -1.4138018583537E+01
(PID.TID 0000.0001) %MON thSI_Tic1_min_S              =  -1.4660760774758E+01
(PID.TID 0000.0001) %MON thSI_Tic1_min_N              =  -2.1501493250564E+01
(PID.TID 0000.0001) %MON thSI_Tic1_max_S              =  -1.6093929731353E-01
(PID.TID 0000.0001) %MON thSI_Tic1_max_N              =  -8.6662576938338E-01
(PID.TID 0000.0001) %MON thSI_Tic2_ave_G              =  -3.9102525498388E+00
(PID.TID 0000.0001) %MON thSI_Tic2_ave_S              =  -3.0534402063119E+00
(PID.TID 0000.0001) %MON thSI_Tic2_ave_N              =  -5.1608573252845E+00
(PID.TID 0000.0001) %MON thSI_Tic2_min_S              =  -8.3951639891968E+00
(PID.TID 0000.0001) %MON thSI_Tic2_min_N              =  -7.8438840899920E+00
(PID.TID 0000.0001) %MON thSI_Tic2_max_S              =  -9.6811712275638E-01
(PID.TID 0000.0001) %MON thSI_Tic2_max_N              =  -1.3623327737159E+00
(PID.TID 0000.0001) %MON thSI_TotEnerg_G              =  -3.8079761551258E+22
(PID.TID 0000.0001) // =======================================================
(PID.TID 0000.0001) // End MONITOR Therm.SeaIce statistics
(PID.TID 0000.0001) // =======================================================
 BULKF_FIELDS_LOAD,     36014 : iP,iLd,i0,i1=   12    1   12    1 ; Wght=  0.0333333333  0.9666666667
 EXTERNAL_FIELDS_LOAD,     36014 : iP,iLd,i0,i1=   12    1   12    1 ; Wght=  0.0333333333  0.9666666667
 cg2d: Sum(rhs),rhsMax =   3.91244720427260E+02  2.30381959259199E+02
(PID.TID 0000.0001)                    cg2d_init_res =    2.58048657522486E+00
(PID.TID 0000.0001)                       cg2d_iters =    69
(PID.TID 0000.0001)                         cg2d_res =    5.49118974952348E-07
(PID.TID 0000.0001) // =======================================================
(PID.TID 0000.0001) // Begin MONITOR dynamic field statistics
(PID.TID 0000.0001) // =======================================================
(PID.TID 0000.0001) %MON time_tsnumber                =                 36015
(PID.TID 0000.0001) %MON time_secondsf                =   3.1116960000000E+09
(PID.TID 0000.0001) %MON dynstat_eta_max              =   7.1611388733258E-01
(PID.TID 0000.0001) %MON dynstat_eta_min              =  -1.1954543684984E+01
(PID.TID 0000.0001) %MON dynstat_eta_mean             =  -5.8191510832473E-01
(PID.TID 0000.0001) %MON dynstat_eta_sd               =   1.6975911135115E+00
(PID.TID 0000.0001) %MON dynstat_eta_del2             =   2.1341085949765E-02
(PID.TID 0000.0001) %MON dynstat_uvel_max             =   1.7320618878650E-01
(PID.TID 0000.0001) %MON dynstat_uvel_min             =  -2.6546761818183E-01
(PID.TID 0000.0001) %MON dynstat_uvel_mean            =  -5.2103513151793E-04
(PID.TID 0000.0001) %MON dynstat_uvel_sd              =   1.2967109948728E-02
(PID.TID 0000.0001) %MON dynstat_uvel_del2            =   5.8521021845055E-05
(PID.TID 0000.0001) %MON dynstat_vvel_max             =   1.9380511489823E-01
(PID.TID 0000.0001) %MON dynstat_vvel_min             =  -2.1153750379779E-01
(PID.TID 0000.0001) %MON dynstat_vvel_mean            =  -4.1737971413706E-04
(PID.TID 0000.0001) %MON dynstat_vvel_sd              =   1.3470381798065E-02
(PID.TID 0000.0001) %MON dynstat_vvel_del2            =   5.5862052926496E-05
(PID.TID 0000.0001) %MON dynstat_wvel_max             =   9.1739669236995E-05
(PID.TID 0000.0001) %MON dynstat_wvel_min             =  -1.7718879967394E-04
(PID.TID 0000.0001) %MON dynstat_wvel_mean            =  -1.2817931175412E-09
(PID.TID 0000.0001) %MON dynstat_wvel_sd              =   4.6212282694845E-06
(PID.TID 0000.0001) %MON dynstat_wvel_del2            =   4.0302273630673E-08
(PID.TID 0000.0001) %MON dynstat_theta_max            =   2.9861539215764E+01
(PID.TID 0000.0001) %MON dynstat_theta_min            =  -3.4942538291002E+00
(PID.TID 0000.0001) %MON dynstat_theta_mean           =   3.5037669631706E+00
(PID.TID 0000.0001) %MON dynstat_theta_sd             =   4.7503177723180E+00
(PID.TID 0000.0001) %MON dynstat_theta_del2           =   2.9804132047898E-03
(PID.TID 0000.0001) %MON dynstat_salt_max             =   4.0840584655421E+01
(PID.TID 0000.0001) %MON dynstat_salt_min             =   1.8093809724566E+01
(PID.TID 0000.0001) %MON dynstat_salt_mean            =   3.4756117465094E+01
(PID.TID 0000.0001) %MON dynstat_salt_sd              =   5.1177485205104E-01
(PID.TID 0000.0001) %MON dynstat_salt_del2            =   8.4266010270112E-04
(PID.TID 0000.0001) %MON forcing_qnet_max             =   8.1538008304468E+02
(PID.TID 0000.0001) %MON forcing_qnet_min             =  -2.3367839904673E+02
(PID.TID 0000.0001) %MON forcing_qnet_mean            =  -6.3824589119685E+00
(PID.TID 0000.0001) %MON forcing_qnet_sd              =   1.2067441670198E+02
(PID.TID 0000.0001) %MON forcing_qnet_del2            =   1.0862069853534E+00
(PID.TID 0000.0001) %MON forcing_qsw_max              =  -0.0000000000000E+00
(PID.TID 0000.0001) %MON forcing_qsw_min              =  -3.3910002413092E+02
(PID.TID 0000.0001) %MON forcing_qsw_mean             =  -1.8663746942577E+02
(PID.TID 0000.0001) %MON forcing_qsw_sd               =   7.9015101213449E+01
(PID.TID 0000.0001) %MON forcing_qsw_del2             =   6.5229829917306E-01
(PID.TID 0000.0001) %MON forcing_empmr_max            =   2.6780421667651E-04
(PID.TID 0000.0001) %MON forcing_empmr_min            =  -3.2195582777999E-04
(PID.TID 0000.0001) %MON forcing_empmr_mean           =  -9.6434593269448E-07
(PID.TID 0000.0001) %MON forcing_empmr_sd             =   4.8116589709467E-05
(PID.TID 0000.0001) %MON forcing_empmr_del2           =   9.0292237124998E-07
(PID.TID 0000.0001) %MON forcing_fu_max               =   2.4866343693550E-01
(PID.TID 0000.0001) %MON forcing_fu_min               =  -2.4810804207900E-01
(PID.TID 0000.0001) %MON forcing_fu_mean              =  -3.9391755645947E-03
(PID.TID 0000.0001) %MON forcing_fu_sd                =   6.5286328792105E-02
(PID.TID 0000.0001) %MON forcing_fu_del2              =   2.2797906587778E-04
(PID.TID 0000.0001) %MON forcing_fv_max               =   2.9037636245273E-01
(PID.TID 0000.0001) %MON forcing_fv_min               =  -3.3795057909504E-01
(PID.TID 0000.0001) %MON forcing_fv_mean              =  -1.3739459161841E-02
(PID.TID 0000.0001) %MON forcing_fv_sd                =   7.6635516474945E-02
(PID.TID 0000.0001) %MON forcing_fv_del2              =   2.5394204351914E-04
(PID.TID 0000.0001) %MON advcfl_uvel_max              =   7.5291652088395E-02
(PID.TID 0000.0001) %MON advcfl_vvel_max              =   8.4476919216170E-02
(PID.TID 0000.0001) %MON advcfl_wvel_max              =   5.7770235063505E-02
(PID.TID 0000.0001) %MON advcfl_W_hf_max              =   6.3820029897835E-02
(PID.TID 0000.0001) %MON pe_b_mean                    =  -1.9233536972402E-03
(PID.TID 0000.0001) %MON ke_max                       =   3.5089949808773E-02
(PID.TID 0000.0001) %MON ke_mean                      =   1.6163577939382E-04
(PID.TID 0000.0001) %MON ke_vol                       =   1.3395906648789E+18
(PID.TID 0000.0001) %MON vort_r_min                   =  -1.2786015054344E-06
(PID.TID 0000.0001) %MON vort_r_max                   =   1.4115440687800E-06
(PID.TID 0000.0001) %MON vort_a_mean                  =  -2.0549865324846E-05
(PID.TID 0000.0001) %MON vort_a_sd                    =   7.5259582029271E-05
(PID.TID 0000.0001) %MON vort_p_mean                  =  -2.4787192758088E-05
(PID.TID 0000.0001) %MON vort_p_sd                    =   1.2817301331745E-04
(PID.TID 0000.0001) %MON surfExpan_theta_mean         =   7.6049999208977E-08
(PID.TID 0000.0001) %MON surfExpan_salt_mean          =   1.9630825443603E-08
(PID.TID 0000.0001) // =======================================================
(PID.TID 0000.0001) // End MONITOR dynamic field statistics
(PID.TID 0000.0001) // =======================================================
(PID.TID 0000.0001) // =======================================================
(PID.TID 0000.0001) // Begin MONITOR Therm.SeaIce statistics
(PID.TID 0000.0001) // =======================================================
(PID.TID 0000.0001) %MON thSI_time_sec                =   3.1116960000000E+09
(PID.TID 0000.0001) %MON thSI_Ice_Area_G              =   2.4912532490345E+13
(PID.TID 0000.0001) %MON thSI_Ice_Area_S              =   1.1493629542113E+13
(PID.TID 0000.0001) %MON thSI_Ice_Area_N              =   1.3418902948232E+13
(PID.TID 0000.0001) %MON thSI_IceH_ave_G              =   4.5637631118606E+00
(PID.TID 0000.0001) %MON thSI_IceH_ave_S              =   5.8643363093461E+00
(PID.TID 0000.0001) %MON thSI_IceH_ave_N              =   3.4497892958216E+00
(PID.TID 0000.0001) %MON thSI_IceH_max_S              =   1.0000000000000E+01
(PID.TID 0000.0001) %MON thSI_IceH_max_N              =   1.0000000000000E+01
(PID.TID 0000.0001) %MON thSI_SnwH_ave_G              =   9.9835204034536E-01
(PID.TID 0000.0001) %MON thSI_SnwH_ave_S              =   1.7283329135824E+00
(PID.TID 0000.0001) %MON thSI_SnwH_ave_N              =   3.7310497192385E-01
(PID.TID 0000.0001) %MON thSI_SnwH_max_S              =   4.0931270740841E+00
(PID.TID 0000.0001) %MON thSI_SnwH_max_N              =   4.1053702344981E+00
(PID.TID 0000.0001) %MON thSI_Tsrf_ave_G              =  -1.7849130571974E+01
(PID.TID 0000.0001) %MON thSI_Tsrf_ave_S              =  -1.3169074331508E-01
(PID.TID 0000.0001) %MON thSI_Tsrf_ave_N              =  -3.3024565599031E+01
(PID.TID 0000.0001) %MON thSI_Tsrf_min_S              =  -5.5301433622741E+00
(PID.TID 0000.0001) %MON thSI_Tsrf_min_N              =  -4.7847784674465E+01
(PID.TID 0000.0001) %MON thSI_Tsrf_max_S              =   0.0000000000000E+00
(PID.TID 0000.0001) %MON thSI_Tsrf_max_N              =  -7.6302321478813E+00
(PID.TID 0000.0001) %MON thSI_Tic1_ave_G              =  -8.6512415370808E+00
(PID.TID 0000.0001) %MON thSI_Tic1_ave_S              =  -4.8366293720843E+00
(PID.TID 0000.0001) %MON thSI_Tic1_ave_N              =  -1.4205382151908E+01
(PID.TID 0000.0001) %MON thSI_Tic1_min_S              =  -1.4529752894090E+01
(PID.TID 0000.0001) %MON thSI_Tic1_min_N              =  -2.1566733407532E+01
(PID.TID 0000.0001) %MON thSI_Tic1_max_S              =  -1.5593667797412E-01
(PID.TID 0000.0001) %MON thSI_Tic1_max_N              =  -8.9121204481441E-01
(PID.TID 0000.0001) %MON thSI_Tic2_ave_G              =  -3.9203009971359E+00
(PID.TID 0000.0001) %MON thSI_Tic2_ave_S              =  -3.0494517289516E+00
(PID.TID 0000.0001) %MON thSI_Tic2_ave_N              =  -5.1882724397371E+00
(PID.TID 0000.0001) %MON thSI_Tic2_min_S              =  -8.3614740128323E+00
(PID.TID 0000.0001) %MON thSI_Tic2_min_N              =  -7.8697514127075E+00
(PID.TID 0000.0001) %MON thSI_Tic2_max_S              =  -9.9312912758149E-01
(PID.TID 0000.0001) %MON thSI_Tic2_max_N              =  -1.3762295939879E+00
(PID.TID 0000.0001) %MON thSI_TotEnerg_G              =  -3.8067623045574E+22
(PID.TID 0000.0001) // =======================================================
(PID.TID 0000.0001) // End MONITOR Therm.SeaIce statistics
(PID.TID 0000.0001) // =======================================================
 BULKF_FIELDS_LOAD,     36015 : iP,iLd,i0,i1=   12    1    1    2 ; Wght=  1.0000000000  0.0000000000
 BULKF_FIELDS_LOAD, it=     36015 : Reading new data, i0,i1=    1    2 (prev=   12    1 )
(PID.TID 0000.0001)  MDS_READ_FIELD: opening global file: ncep_tair_cs.bin
(PID.TID 0000.0001)  MDS_READ_FIELD: opening global file: ncep_tair_cs.bin
(PID.TID 0000.0001)  MDS_READ_FIELD: opening global file: ncep_qair_cs.bin
(PID.TID 0000.0001)  MDS_READ_FIELD: opening global file: ncep_qair_cs.bin
(PID.TID 0000.0001)  MDS_READ_FIELD: opening global file: ncep_downsolar_cs.bin
(PID.TID 0000.0001)  MDS_READ_FIELD: opening global file: ncep_downsolar_cs.bin
(PID.TID 0000.0001)  MDS_READ_FIELD: opening global file: ncep_downlw_cs.bin
(PID.TID 0000.0001)  MDS_READ_FIELD: opening global file: ncep_downlw_cs.bin
(PID.TID 0000.0001)  MDS_READ_FIELD: opening global file: ncep_windspeed_cs.bin
(PID.TID 0000.0001)  MDS_READ_FIELD: opening global file: ncep_windspeed_cs.bin
(PID.TID 0000.0001)  MDS_READ_FIELD: opening global file: ncep_pr_scal_cs.bin
(PID.TID 0000.0001)  MDS_READ_FIELD: opening global file: ncep_pr_scal_cs.bin
 EXTERNAL_FIELDS_LOAD,     36015 : iP,iLd,i0,i1=   12    1    1    2 ; Wght=  1.0000000000  0.0000000000
 EXTERNAL_FIELDS_LOAD, it=     36015 : Reading new data, i0,i1=    1    2 (prev=   12    1 )
(PID.TID 0000.0001)  MDS_READ_FIELD: opening global file: trenberth_taux.bin
(PID.TID 0000.0001)  MDS_READ_FIELD: opening global file: trenberth_taux.bin
(PID.TID 0000.0001)  MDS_READ_FIELD: opening global file: trenberth_tauy.bin
(PID.TID 0000.0001)  MDS_READ_FIELD: opening global file: trenberth_tauy.bin
(PID.TID 0000.0001)  MDS_READ_FIELD: opening global file: lev_surfT_cs_12m.bin
(PID.TID 0000.0001)  MDS_READ_FIELD: opening global file: lev_surfT_cs_12m.bin
(PID.TID 0000.0001)  MDS_READ_FIELD: opening global file: lev_surfS_cs_12m.bin
(PID.TID 0000.0001)  MDS_READ_FIELD: opening global file: lev_surfS_cs_12m.bin
 cg2d: Sum(rhs),rhsMax =   3.91185316834049E+02  2.30486310554950E+02
(PID.TID 0000.0001)                    cg2d_init_res =    2.53105119767212E+00
(PID.TID 0000.0001)                       cg2d_iters =    69
(PID.TID 0000.0001)                         cg2d_res =    5.33592730174330E-07
(PID.TID 0000.0001) // =======================================================
(PID.TID 0000.0001) // Begin MONITOR dynamic field statistics
(PID.TID 0000.0001) // =======================================================
(PID.TID 0000.0001) %MON time_tsnumber                =                 36016
(PID.TID 0000.0001) %MON time_secondsf                =   3.1117824000000E+09
(PID.TID 0000.0001) %MON dynstat_eta_max              =   7.1488498250705E-01
(PID.TID 0000.0001) %MON dynstat_eta_min              =  -1.1951284947005E+01
(PID.TID 0000.0001) %MON dynstat_eta_mean             =  -5.8182675480435E-01
(PID.TID 0000.0001) %MON dynstat_eta_sd               =   1.6970909419694E+00
(PID.TID 0000.0001) %MON dynstat_eta_del2             =   2.1348455053371E-02
(PID.TID 0000.0001) %MON dynstat_uvel_max             =   1.7283827254848E-01
(PID.TID 0000.0001) %MON dynstat_uvel_min             =  -2.6496468487297E-01
(PID.TID 0000.0001) %MON dynstat_uvel_mean            =  -5.2022312604527E-04
(PID.TID 0000.0001) %MON dynstat_uvel_sd              =   1.2966244721614E-02
(PID.TID 0000.0001) %MON dynstat_uvel_del2            =   5.8510967581091E-05
(PID.TID 0000.0001) %MON dynstat_vvel_max             =   1.9338801484924E-01
(PID.TID 0000.0001) %MON dynstat_vvel_min             =  -2.1156197882797E-01
(PID.TID 0000.0001) %MON dynstat_vvel_mean            =  -4.1684625594367E-04
(PID.TID 0000.0001) %MON dynstat_vvel_sd              =   1.3467369425748E-02
(PID.TID 0000.0001) %MON dynstat_vvel_del2            =   5.5837601166095E-05
(PID.TID 0000.0001) %MON dynstat_wvel_max             =   9.2252842305693E-05
(PID.TID 0000.0001) %MON dynstat_wvel_min             =  -1.7694033064772E-04
(PID.TID 0000.0001) %MON dynstat_wvel_mean            =  -1.2898062820750E-09
(PID.TID 0000.0001) %MON dynstat_wvel_sd              =   4.6212226462835E-06
(PID.TID 0000.0001) %MON dynstat_wvel_del2            =   4.0288248818603E-08
(PID.TID 0000.0001) %MON dynstat_theta_max            =   2.9846689833482E+01
(PID.TID 0000.0001) %MON dynstat_theta_min            =  -3.5122939883672E+00
(PID.TID 0000.0001) %MON dynstat_theta_mean           =   3.5038383544525E+00
(PID.TID 0000.0001) %MON dynstat_theta_sd             =   4.7504717732285E+00
(PID.TID 0000.0001) %MON dynstat_theta_del2           =   2.9850292187928E-03
(PID.TID 0000.0001) %MON dynstat_salt_max             =   4.0841190697169E+01
(PID.TID 0000.0001) %MON dynstat_salt_min             =   1.8095233472736E+01
(PID.TID 0000.0001) %MON dynstat_salt_mean            =   3.4756117723022E+01
(PID.TID 0000.0001) %MON dynstat_salt_sd              =   5.1176820724889E-01
(PID.TID 0000.0001) %MON dynstat_salt_del2            =   8.4334742573812E-04
(PID.TID 0000.0001) %MON forcing_qnet_max             =   8.1841713921220E+02
(PID.TID 0000.0001) %MON forcing_qnet_min             =  -2.3330931532128E+02
(PID.TID 0000.0001) %MON forcing_qnet_mean            =  -6.4213268785485E+00
(PID.TID 0000.0001) %MON forcing_qnet_sd              =   1.2080733216276E+02
(PID.TID 0000.0001) %MON forcing_qnet_del2            =   1.0946549424127E+00
(PID.TID 0000.0001) %MON forcing_qsw_max              =  -0.0000000000000E+00
(PID.TID 0000.0001) %MON forcing_qsw_min              =  -3.3889598148373E+02
(PID.TID 0000.0001) %MON forcing_qsw_mean             =  -1.8664899350789E+02
(PID.TID 0000.0001) %MON forcing_qsw_sd               =   7.8879490829419E+01
(PID.TID 0000.0001) %MON forcing_qsw_del2             =   6.4977660402901E-01
(PID.TID 0000.0001) %MON forcing_empmr_max            =   2.3999394374816E-04
(PID.TID 0000.0001) %MON forcing_empmr_min            =  -3.2098823605758E-04
(PID.TID 0000.0001) %MON forcing_empmr_mean           =  -1.0584015461659E-06
(PID.TID 0000.0001) %MON forcing_empmr_sd             =   4.7942953714055E-05
(PID.TID 0000.0001) %MON forcing_empmr_del2           =   8.8381001176949E-07
(PID.TID 0000.0001) %MON forcing_fu_max               =   2.4892781143428E-01
(PID.TID 0000.0001) %MON forcing_fu_min               =  -2.5159107438040E-01
(PID.TID 0000.0001) %MON forcing_fu_mean              =  -3.8956966288612E-03
(PID.TID 0000.0001) %MON forcing_fu_sd                =   6.5480383395885E-02
(PID.TID 0000.0001) %MON forcing_fu_del2              =   2.3114393556995E-04
(PID.TID 0000.0001) %MON forcing_fv_max               =   2.9305960402537E-01
(PID.TID 0000.0001) %MON forcing_fv_min               =  -3.3950131228473E-01
(PID.TID 0000.0001) %MON forcing_fv_mean              =  -1.3743384707768E-02
(PID.TID 0000.0001) %MON forcing_fv_sd                =   7.6816469815204E-02
(PID.TID 0000.0001) %MON forcing_fv_del2              =   2.5671701728584E-04
(PID.TID 0000.0001) %MON advcfl_uvel_max              =   7.5149010662019E-02
(PID.TID 0000.0001) %MON advcfl_vvel_max              =   8.4295111181010E-02
(PID.TID 0000.0001) %MON advcfl_wvel_max              =   5.7689224784766E-02
(PID.TID 0000.0001) %MON advcfl_W_hf_max              =   6.3730573611802E-02
(PID.TID 0000.0001) %MON pe_b_mean                    =  -1.9223735950934E-03
(PID.TID 0000.0001) %MON ke_max                       =   3.4947482410777E-02
(PID.TID 0000.0001) %MON ke_mean                      =   1.6158724774836E-04
(PID.TID 0000.0001) %MON ke_vol                       =   1.3395906941725E+18
(PID.TID 0000.0001) %MON vort_r_min                   =  -1.2836458756423E-06
(PID.TID 0000.0001) %MON vort_r_max                   =   1.4138278566670E-06
(PID.TID 0000.0001) %MON vort_a_mean                  =  -2.0549865324846E-05
(PID.TID 0000.0001) %MON vort_a_sd                    =   7.5259581961757E-05
(PID.TID 0000.0001) %MON vort_p_mean                  =  -2.4787191972982E-05
(PID.TID 0000.0001) %MON vort_p_sd                    =   1.2817301136526E-04
(PID.TID 0000.0001) %MON surfExpan_theta_mean         =   7.5167039346241E-08
(PID.TID 0000.0001) %MON surfExpan_salt_mean          =   1.9657034413503E-08
(PID.TID 0000.0001) // =======================================================
(PID.TID 0000.0001) // End MONITOR dynamic field statistics
(PID.TID 0000.0001) // =======================================================
(PID.TID 0000.0001) // =======================================================
(PID.TID 0000.0001) // Begin MONITOR Therm.SeaIce statistics
(PID.TID 0000.0001) // =======================================================
(PID.TID 0000.0001) %MON thSI_time_sec                =   3.1117824000000E+09
(PID.TID 0000.0001) %MON thSI_Ice_Area_G              =   2.4891955266372E+13
(PID.TID 0000.0001) %MON thSI_Ice_Area_S              =   1.1459126755917E+13
(PID.TID 0000.0001) %MON thSI_Ice_Area_N              =   1.3432828510455E+13
(PID.TID 0000.0001) %MON thSI_IceH_ave_G              =   4.5665955300692E+00
(PID.TID 0000.0001) %MON thSI_IceH_ave_S              =   5.8749829343100E+00
(PID.TID 0000.0001) %MON thSI_IceH_ave_N              =   3.4504510710396E+00
(PID.TID 0000.0001) %MON thSI_IceH_max_S              =   1.0000000000000E+01
(PID.TID 0000.0001) %MON thSI_IceH_max_N              =   1.0000000000000E+01
(PID.TID 0000.0001) %MON thSI_SnwH_ave_G              =   9.9623734571104E-01
(PID.TID 0000.0001) %MON thSI_SnwH_ave_S              =   1.7237247619362E+00
(PID.TID 0000.0001) %MON thSI_SnwH_ave_N              =   3.7564053623274E-01
(PID.TID 0000.0001) %MON thSI_SnwH_max_S              =   4.0930733784460E+00
(PID.TID 0000.0001) %MON thSI_SnwH_max_N              =   4.1057478290189E+00
(PID.TID 0000.0001) %MON thSI_Tsrf_ave_G              =  -1.7939196052234E+01
(PID.TID 0000.0001) %MON thSI_Tsrf_ave_S              =  -1.5216632676830E-01
(PID.TID 0000.0001) %MON thSI_Tsrf_ave_N              =  -3.3112755967535E+01
(PID.TID 0000.0001) %MON thSI_Tsrf_min_S              =  -5.5459877382829E+00
(PID.TID 0000.0001) %MON thSI_Tsrf_min_N              =  -4.7963087642885E+01
(PID.TID 0000.0001) %MON thSI_Tsrf_max_S              =   0.0000000000000E+00
(PID.TID 0000.0001) %MON thSI_Tsrf_max_N              =  -7.8486972135990E+00
(PID.TID 0000.0001) %MON thSI_Tic1_ave_G              =  -8.6698155803276E+00
(PID.TID 0000.0001) %MON thSI_Tic1_ave_S              =  -4.8131578106497E+00
(PID.TID 0000.0001) %MON thSI_Tic1_ave_N              =  -1.4271593553098E+01
(PID.TID 0000.0001) %MON thSI_Tic1_min_S              =  -1.4400240721967E+01
(PID.TID 0000.0001) %MON thSI_Tic1_min_N              =  -2.1666976585386E+01
(PID.TID 0000.0001) %MON thSI_Tic1_max_S              =  -1.5122459149498E-01
(PID.TID 0000.0001) %MON thSI_Tic1_max_N              =  -9.1696099913688E-01
(PID.TID 0000.0001) %MON thSI_Tic2_ave_G              =  -3.9301348407191E+00
(PID.TID 0000.0001) %MON thSI_Tic2_ave_S              =  -3.0453522894225E+00
(PID.TID 0000.0001) %MON thSI_Tic2_ave_N              =  -5.2152774959770E+00
(PID.TID 0000.0001) %MON thSI_Tic2_min_S              =  -8.3266000794087E+00
(PID.TID 0000.0001) %MON thSI_Tic2_min_N              =  -7.8948015178449E+00
(PID.TID 0000.0001) %MON thSI_Tic2_max_S              =  -9.6594504553220E-01
(PID.TID 0000.0001) %MON thSI_Tic2_max_N              =  -1.3897142815918E+00
(PID.TID 0000.0001) %MON thSI_TotEnerg_G              =  -3.8054400112984E+22
(PID.TID 0000.0001) // =======================================================
(PID.TID 0000.0001) // End MONITOR Therm.SeaIce statistics
(PID.TID 0000.0001) // =======================================================
 BULKF_FIELDS_LOAD,     36016 : iP,iLd,i0,i1=    1    2    1    2 ; Wght=  0.9666666667  0.0333333333
 EXTERNAL_FIELDS_LOAD,     36016 : iP,iLd,i0,i1=    1    2    1    2 ; Wght=  0.9666666667  0.0333333333
 cg2d: Sum(rhs),rhsMax =   3.91137977169035E+02  2.30586335245589E+02
(PID.TID 0000.0001)                    cg2d_init_res =    2.50737442711999E+00
(PID.TID 0000.0001)                       cg2d_iters =    69
(PID.TID 0000.0001)                         cg2d_res =    5.29878076195651E-07
(PID.TID 0000.0001) // =======================================================
(PID.TID 0000.0001) // Begin MONITOR dynamic field statistics
(PID.TID 0000.0001) // =======================================================
(PID.TID 0000.0001) %MON time_tsnumber                =                 36017
(PID.TID 0000.0001) %MON time_secondsf                =   3.1118688000000E+09
(PID.TID 0000.0001) %MON dynstat_eta_max              =   7.1382313187989E-01
(PID.TID 0000.0001) %MON dynstat_eta_min              =  -1.1948141801582E+01
(PID.TID 0000.0001) %MON dynstat_eta_mean             =  -5.8175634448351E-01
(PID.TID 0000.0001) %MON dynstat_eta_sd               =   1.6966339832506E+00
(PID.TID 0000.0001) %MON dynstat_eta_del2             =   2.1356279528010E-02
(PID.TID 0000.0001) %MON dynstat_uvel_max             =   1.7257288990830E-01
(PID.TID 0000.0001) %MON dynstat_uvel_min             =  -2.6445237182883E-01
(PID.TID 0000.0001) %MON dynstat_uvel_mean            =  -5.1939423248619E-04
(PID.TID 0000.0001) %MON dynstat_uvel_sd              =   1.2965661881323E-02
(PID.TID 0000.0001) %MON dynstat_uvel_del2            =   5.8502622424118E-05
(PID.TID 0000.0001) %MON dynstat_vvel_max             =   1.9292795049179E-01
(PID.TID 0000.0001) %MON dynstat_vvel_min             =  -2.1157503819707E-01
(PID.TID 0000.0001) %MON dynstat_vvel_mean            =  -4.1630896255939E-04
(PID.TID 0000.0001) %MON dynstat_vvel_sd              =   1.3463815777567E-02
(PID.TID 0000.0001) %MON dynstat_vvel_del2            =   5.5814557670751E-05
(PID.TID 0000.0001) %MON dynstat_wvel_max             =   9.2718497824341E-05
(PID.TID 0000.0001) %MON dynstat_wvel_min             =  -1.7668729580777E-04
(PID.TID 0000.0001) %MON dynstat_wvel_mean            =  -1.2450916732664E-09
(PID.TID 0000.0001) %MON dynstat_wvel_sd              =   4.6211465805500E-06
(PID.TID 0000.0001) %MON dynstat_wvel_del2            =   4.0272142607722E-08
(PID.TID 0000.0001) %MON dynstat_theta_max            =   2.9831937868374E+01
(PID.TID 0000.0001) %MON dynstat_theta_min            =  -3.5303356242749E+00
(PID.TID 0000.0001) %MON dynstat_theta_mean           =   3.5039114359009E+00
(PID.TID 0000.0001) %MON dynstat_theta_sd             =   4.7506381253434E+00
(PID.TID 0000.0001) %MON dynstat_theta_del2           =   2.9893825108280E-03
(PID.TID 0000.0001) %MON dynstat_salt_max             =   4.0841677349584E+01
(PID.TID 0000.0001) %MON dynstat_salt_min             =   1.8096651671471E+01
(PID.TID 0000.0001) %MON dynstat_salt_mean            =   3.4756118155224E+01
(PID.TID 0000.0001) %MON dynstat_salt_sd              =   5.1176105601268E-01
(PID.TID 0000.0001) %MON dynstat_salt_del2            =   8.4399153844728E-04
(PID.TID 0000.0001) %MON forcing_qnet_max             =   8.1145496547740E+02
(PID.TID 0000.0001) %MON forcing_qnet_min             =  -2.3176764078225E+02
(PID.TID 0000.0001) %MON forcing_qnet_mean            =  -6.6472919103745E+00
(PID.TID 0000.0001) %MON forcing_qnet_sd              =   1.1870824287511E+02
(PID.TID 0000.0001) %MON forcing_qnet_del2            =   1.0846592868744E+00
(PID.TID 0000.0001) %MON forcing_qsw_max              =  -0.0000000000000E+00
(PID.TID 0000.0001) %MON forcing_qsw_min              =  -3.3787837809554E+02
(PID.TID 0000.0001) %MON forcing_qsw_mean             =  -1.8661941097590E+02
(PID.TID 0000.0001) %MON forcing_qsw_sd               =   7.8409216358409E+01
(PID.TID 0000.0001) %MON forcing_qsw_del2             =   6.4439992202120E-01
(PID.TID 0000.0001) %MON forcing_empmr_max            =   4.6163404733511E-04
(PID.TID 0000.0001) %MON forcing_empmr_min            =  -3.1726007392575E-04
(PID.TID 0000.0001) %MON forcing_empmr_mean           =  -8.4345696848609E-07
(PID.TID 0000.0001) %MON forcing_empmr_sd             =   4.8098045031973E-05
(PID.TID 0000.0001) %MON forcing_empmr_del2           =   8.8858865620075E-07
(PID.TID 0000.0001) %MON forcing_fu_max               =   2.4586080052368E-01
(PID.TID 0000.0001) %MON forcing_fu_min               =  -2.4690104382675E-01
(PID.TID 0000.0001) %MON forcing_fu_mean              =  -3.9278253198990E-03
(PID.TID 0000.0001) %MON forcing_fu_sd                =   6.5282090105345E-02
(PID.TID 0000.0001) %MON forcing_fu_del2              =   2.2765741152947E-04
(PID.TID 0000.0001) %MON forcing_fv_max               =   2.9225622243089E-01
(PID.TID 0000.0001) %MON forcing_fv_min               =  -3.3606226010595E-01
(PID.TID 0000.0001) %MON forcing_fv_mean              =  -1.3741594714266E-02
(PID.TID 0000.0001) %MON forcing_fv_sd                =   7.6550053729987E-02
(PID.TID 0000.0001) %MON forcing_fv_del2              =   2.5418174123344E-04
(PID.TID 0000.0001) %MON advcfl_uvel_max              =   7.5003708964796E-02
(PID.TID 0000.0001) %MON advcfl_vvel_max              =   8.4094575609083E-02
(PID.TID 0000.0001) %MON advcfl_wvel_max              =   5.7606725878456E-02
(PID.TID 0000.0001) %MON advcfl_W_hf_max              =   6.3639473903325E-02
(PID.TID 0000.0001) %MON pe_b_mean                    =  -1.9215924299956E-03
(PID.TID 0000.0001) %MON ke_max                       =   3.4804936314759E-02
(PID.TID 0000.0001) %MON ke_mean                      =   1.6153531829463E-04
(PID.TID 0000.0001) %MON ke_vol                       =   1.3395907263232E+18
(PID.TID 0000.0001) %MON vort_r_min                   =  -1.2884370648584E-06
(PID.TID 0000.0001) %MON vort_r_max                   =   1.4155833335602E-06
(PID.TID 0000.0001) %MON vort_a_mean                  =  -2.0549865324846E-05
(PID.TID 0000.0001) %MON vort_a_sd                    =   7.5259581905747E-05
(PID.TID 0000.0001) %MON vort_p_mean                  =  -2.4787191144663E-05
(PID.TID 0000.0001) %MON vort_p_sd                    =   1.2817300813437E-04
(PID.TID 0000.0001) %MON surfExpan_theta_mean         =   7.3816498467535E-08
(PID.TID 0000.0001) %MON surfExpan_salt_mean          =   1.9539701600073E-08
(PID.TID 0000.0001) // =======================================================
(PID.TID 0000.0001) // End MONITOR dynamic field statistics
(PID.TID 0000.0001) // =======================================================
(PID.TID 0000.0001) // =======================================================
(PID.TID 0000.0001) // Begin MONITOR Therm.SeaIce statistics
(PID.TID 0000.0001) // =======================================================
(PID.TID 0000.0001) %MON thSI_time_sec                =   3.1118688000000E+09
(PID.TID 0000.0001) %MON thSI_Ice_Area_G              =   2.4892957274526E+13
(PID.TID 0000.0001) %MON thSI_Ice_Area_S              =   1.1419588764250E+13
(PID.TID 0000.0001) %MON thSI_Ice_Area_N              =   1.3473368510277E+13
(PID.TID 0000.0001) %MON thSI_IceH_ave_G              =   4.5656884381271E+00
(PID.TID 0000.0001) %MON thSI_IceH_ave_S              =   5.8883865711275E+00
(PID.TID 0000.0001) %MON thSI_IceH_ave_N              =   3.4446125374283E+00
(PID.TID 0000.0001) %MON thSI_IceH_max_S              =   1.0000000000000E+01
(PID.TID 0000.0001) %MON thSI_IceH_max_N              =   1.0000000000000E+01
(PID.TID 0000.0001) %MON thSI_SnwH_ave_G              =   9.9364470373117E-01
(PID.TID 0000.0001) %MON thSI_SnwH_ave_S              =   1.7207573933001E+00
(PID.TID 0000.0001) %MON thSI_SnwH_ave_N              =   3.7736764622978E-01
(PID.TID 0000.0001) %MON thSI_SnwH_max_S              =   4.0930368542396E+00
(PID.TID 0000.0001) %MON thSI_SnwH_max_N              =   4.1061092649847E+00
(PID.TID 0000.0001) %MON thSI_Tsrf_ave_G              =  -1.7962048395145E+01
(PID.TID 0000.0001) %MON thSI_Tsrf_ave_S              =  -1.4823040340545E-01
(PID.TID 0000.0001) %MON thSI_Tsrf_ave_N              =  -3.3060460914010E+01
(PID.TID 0000.0001) %MON thSI_Tsrf_min_S              =  -5.7900292618687E+00
(PID.TID 0000.0001) %MON thSI_Tsrf_min_N              =  -4.7949850498549E+01
(PID.TID 0000.0001) %MON thSI_Tsrf_max_S              =   0.0000000000000E+00
(PID.TID 0000.0001) %MON thSI_Tsrf_max_N              =  -1.7864705076194E+00
(PID.TID 0000.0001) %MON thSI_Tic1_ave_G              =  -8.6887063527771E+00
(PID.TID 0000.0001) %MON thSI_Tic1_ave_S              =  -4.7925833746260E+00
(PID.TID 0000.0001) %MON thSI_Tic1_ave_N              =  -1.4333692344081E+01
(PID.TID 0000.0001) %MON thSI_Tic1_min_S              =  -1.4272207727478E+01
(PID.TID 0000.0001) %MON thSI_Tic1_min_N              =  -2.1764880265622E+01
(PID.TID 0000.0001) %MON thSI_Tic1_max_S              =  -1.4680878379966E-01
(PID.TID 0000.0001) %MON thSI_Tic1_max_N              =  -9.4387998305549E-01
(PID.TID 0000.0001) %MON thSI_Tic2_ave_G              =  -3.9397143966778E+00
(PID.TID 0000.0001) %MON thSI_Tic2_ave_S              =  -3.0413608287189E+00
(PID.TID 0000.0001) %MON thSI_Tic2_ave_N              =  -5.2413143037660E+00
(PID.TID 0000.0001) %MON thSI_Tic2_min_S              =  -8.2917468066819E+00
(PID.TID 0000.0001) %MON thSI_Tic2_min_N              =  -7.9190492063995E+00
(PID.TID 0000.0001) %MON thSI_Tic2_max_S              =  -9.9363405716009E-01
(PID.TID 0000.0001) %MON thSI_Tic2_max_N              =  -1.4028195317004E+00
(PID.TID 0000.0001) %MON thSI_TotEnerg_G              =  -3.8043482576031E+22
(PID.TID 0000.0001) // =======================================================
(PID.TID 0000.0001) // End MONITOR Therm.SeaIce statistics
(PID.TID 0000.0001) // =======================================================
 BULKF_FIELDS_LOAD,     36017 : iP,iLd,i0,i1=    1    2    1    2 ; Wght=  0.9333333333  0.0666666667
 EXTERNAL_FIELDS_LOAD,     36017 : iP,iLd,i0,i1=    1    2    1    2 ; Wght=  0.9333333333  0.0666666667
 cg2d: Sum(rhs),rhsMax =   3.91105760786073E+02  2.30680091080787E+02
(PID.TID 0000.0001)                    cg2d_init_res =    2.50818111967835E+00
(PID.TID 0000.0001)                       cg2d_iters =    69
(PID.TID 0000.0001)                         cg2d_res =    5.19308588997751E-07
(PID.TID 0000.0001) // =======================================================
(PID.TID 0000.0001) // Begin MONITOR dynamic field statistics
(PID.TID 0000.0001) // =======================================================
(PID.TID 0000.0001) %MON time_tsnumber                =                 36018
(PID.TID 0000.0001) %MON time_secondsf                =   3.1119552000000E+09
(PID.TID 0000.0001) %MON dynstat_eta_max              =   7.1281776631088E-01
(PID.TID 0000.0001) %MON dynstat_eta_min              =  -1.1945177845518E+01
(PID.TID 0000.0001) %MON dynstat_eta_mean             =  -5.8170842767083E-01
(PID.TID 0000.0001) %MON dynstat_eta_sd               =   1.6962216637903E+00
(PID.TID 0000.0001) %MON dynstat_eta_del2             =   2.1363887328619E-02
(PID.TID 0000.0001) %MON dynstat_uvel_max             =   1.7265507258723E-01
(PID.TID 0000.0001) %MON dynstat_uvel_min             =  -2.6392889537600E-01
(PID.TID 0000.0001) %MON dynstat_uvel_mean            =  -5.1855701244388E-04
(PID.TID 0000.0001) %MON dynstat_uvel_sd              =   1.2965291329126E-02
(PID.TID 0000.0001) %MON dynstat_uvel_del2            =   5.8496442092258E-05
(PID.TID 0000.0001) %MON dynstat_vvel_max             =   1.9242876814514E-01
(PID.TID 0000.0001) %MON dynstat_vvel_min             =  -2.1157974079734E-01
(PID.TID 0000.0001) %MON dynstat_vvel_mean            =  -4.1574615243846E-04
(PID.TID 0000.0001) %MON dynstat_vvel_sd              =   1.3459880644525E-02
(PID.TID 0000.0001) %MON dynstat_vvel_del2            =   5.5792553869845E-05
(PID.TID 0000.0001) %MON dynstat_wvel_max             =   9.3126512330482E-05
(PID.TID 0000.0001) %MON dynstat_wvel_min             =  -1.7643750058720E-04
(PID.TID 0000.0001) %MON dynstat_wvel_mean            =  -1.1941349004420E-09
(PID.TID 0000.0001) %MON dynstat_wvel_sd              =   4.6209715837375E-06
(PID.TID 0000.0001) %MON dynstat_wvel_del2            =   4.0251749452301E-08
(PID.TID 0000.0001) %MON dynstat_theta_max            =   2.9817319816776E+01
(PID.TID 0000.0001) %MON dynstat_theta_min            =  -3.5483702667187E+00
(PID.TID 0000.0001) %MON dynstat_theta_mean           =   3.5039864229645E+00
(PID.TID 0000.0001) %MON dynstat_theta_sd             =   4.7508148800765E+00
(PID.TID 0000.0001) %MON dynstat_theta_del2           =   2.9945883764208E-03
(PID.TID 0000.0001) %MON dynstat_salt_max             =   4.0842053964427E+01
(PID.TID 0000.0001) %MON dynstat_salt_min             =   1.8098068271052E+01
(PID.TID 0000.0001) %MON dynstat_salt_mean            =   3.4756118805924E+01
(PID.TID 0000.0001) %MON dynstat_salt_sd              =   5.1175276018320E-01
(PID.TID 0000.0001) %MON dynstat_salt_del2            =   8.4495055931611E-04
(PID.TID 0000.0001) %MON forcing_qnet_max             =   8.0461915462503E+02
(PID.TID 0000.0001) %MON forcing_qnet_min             =  -2.3023399182001E+02
(PID.TID 0000.0001) %MON forcing_qnet_mean            =  -6.9115705811711E+00
(PID.TID 0000.0001) %MON forcing_qnet_sd              =   1.1675909970202E+02
(PID.TID 0000.0001) %MON forcing_qnet_del2            =   1.0814654845801E+00
(PID.TID 0000.0001) %MON forcing_qsw_max              =  -0.0000000000000E+00
(PID.TID 0000.0001) %MON forcing_qsw_min              =  -3.3686077470735E+02
(PID.TID 0000.0001) %MON forcing_qsw_mean             =  -1.8658914342103E+02
(PID.TID 0000.0001) %MON forcing_qsw_sd               =   7.7951549928513E+01
(PID.TID 0000.0001) %MON forcing_qsw_del2             =   6.4000802213467E-01
(PID.TID 0000.0001) %MON forcing_empmr_max            =   8.9693369032013E-04
(PID.TID 0000.0001) %MON forcing_empmr_min            =  -3.1598976992726E-04
(PID.TID 0000.0001) %MON forcing_empmr_mean           =  -5.7400348522905E-07
(PID.TID 0000.0001) %MON forcing_empmr_sd             =   4.9590013586434E-05
(PID.TID 0000.0001) %MON forcing_empmr_del2           =   9.0967553194773E-07
(PID.TID 0000.0001) %MON forcing_fu_max               =   2.4279378961307E-01
(PID.TID 0000.0001) %MON forcing_fu_min               =  -2.4221101327311E-01
(PID.TID 0000.0001) %MON forcing_fu_mean              =  -3.9599540109368E-03
(PID.TID 0000.0001) %MON forcing_fu_sd                =   6.5097565012911E-02
(PID.TID 0000.0001) %MON forcing_fu_del2              =   2.2436904772888E-04
(PID.TID 0000.0001) %MON forcing_fv_max               =   2.9145284083641E-01
(PID.TID 0000.0001) %MON forcing_fv_min               =  -3.3262320792717E-01
(PID.TID 0000.0001) %MON forcing_fv_mean              =  -1.3739804720763E-02
(PID.TID 0000.0001) %MON forcing_fv_sd                =   7.6299912613877E-02
(PID.TID 0000.0001) %MON forcing_fv_del2              =   2.5181803534899E-04
(PID.TID 0000.0001) %MON advcfl_uvel_max              =   7.4855241113111E-02
(PID.TID 0000.0001) %MON advcfl_vvel_max              =   8.3876989056765E-02
(PID.TID 0000.0001) %MON advcfl_wvel_max              =   5.7525283210318E-02
(PID.TID 0000.0001) %MON advcfl_W_hf_max              =   6.3549543253952E-02
(PID.TID 0000.0001) %MON pe_b_mean                    =  -1.9209629613246E-03
(PID.TID 0000.0001) %MON ke_max                       =   3.4661381334085E-02
(PID.TID 0000.0001) %MON ke_mean                      =   1.6148115255010E-04
(PID.TID 0000.0001) %MON ke_vol                       =   1.3395907519445E+18
(PID.TID 0000.0001) %MON vort_r_min                   =  -1.2930275762044E-06
(PID.TID 0000.0001) %MON vort_r_max                   =   1.4168635955590E-06
(PID.TID 0000.0001) %MON vort_a_mean                  =  -2.0549865324846E-05
(PID.TID 0000.0001) %MON vort_a_sd                    =   7.5259581868793E-05
(PID.TID 0000.0001) %MON vort_p_mean                  =  -2.4787190402354E-05
(PID.TID 0000.0001) %MON vort_p_sd                    =   1.2817300718114E-04
(PID.TID 0000.0001) %MON surfExpan_theta_mean         =   7.2617350951560E-08
(PID.TID 0000.0001) %MON surfExpan_salt_mean          =   1.9366617038954E-08
(PID.TID 0000.0001) // =======================================================
(PID.TID 0000.0001) // End MONITOR dynamic field statistics
(PID.TID 0000.0001) // =======================================================
(PID.TID 0000.0001) // =======================================================
(PID.TID 0000.0001) // Begin MONITOR Therm.SeaIce statistics
(PID.TID 0000.0001) // =======================================================
(PID.TID 0000.0001) %MON thSI_time_sec                =   3.1119552000000E+09
(PID.TID 0000.0001) %MON thSI_Ice_Area_G              =   2.4908102311875E+13
(PID.TID 0000.0001) %MON thSI_Ice_Area_S              =   1.1384712952702E+13
(PID.TID 0000.0001) %MON thSI_Ice_Area_N              =   1.3523389359173E+13
(PID.TID 0000.0001) %MON thSI_IceH_ave_G              =   4.5624894321973E+00
(PID.TID 0000.0001) %MON thSI_IceH_ave_S              =   5.8996181454688E+00
(PID.TID 0000.0001) %MON thSI_IceH_ave_N              =   3.4368229164221E+00
(PID.TID 0000.0001) %MON thSI_IceH_max_S              =   1.0000000000000E+01
(PID.TID 0000.0001) %MON thSI_IceH_max_N              =   1.0000000000000E+01
(PID.TID 0000.0001) %MON thSI_SnwH_ave_G              =   9.9085045190359E-01
(PID.TID 0000.0001) %MON thSI_SnwH_ave_S              =   1.7178646978711E+00
(PID.TID 0000.0001) %MON thSI_SnwH_ave_N              =   3.7881094885909E-01
(PID.TID 0000.0001) %MON thSI_SnwH_max_S              =   4.0930065675057E+00
(PID.TID 0000.0001) %MON thSI_SnwH_max_N              =   4.1064659932041E+00
(PID.TID 0000.0001) %MON thSI_Tsrf_ave_G              =  -1.8005337657932E+01
(PID.TID 0000.0001) %MON thSI_Tsrf_ave_S              =  -1.8609268385418E-01
(PID.TID 0000.0001) %MON thSI_Tsrf_ave_N              =  -3.3006531787283E+01
(PID.TID 0000.0001) %MON thSI_Tsrf_min_S              =  -6.0831078425461E+00
(PID.TID 0000.0001) %MON thSI_Tsrf_min_N              =  -4.7936328245564E+01
(PID.TID 0000.0001) %MON thSI_Tsrf_max_S              =   0.0000000000000E+00
(PID.TID 0000.0001) %MON thSI_Tsrf_max_N              =  -1.7144136250846E+00
(PID.TID 0000.0001) %MON thSI_Tic1_ave_G              =  -8.7052283323764E+00
(PID.TID 0000.0001) %MON thSI_Tic1_ave_S              =  -4.7694074903217E+00
(PID.TID 0000.0001) %MON thSI_Tic1_ave_N              =  -1.4392953476437E+01
(PID.TID 0000.0001) %MON thSI_Tic1_min_S              =  -1.3834478130142E+01
(PID.TID 0000.0001) %MON thSI_Tic1_min_N              =  -2.1860508166999E+01
(PID.TID 0000.0001) %MON thSI_Tic1_max_S              =  -1.4266225684683E-01
(PID.TID 0000.0001) %MON thSI_Tic1_max_N              =  -9.7202612295009E-01
(PID.TID 0000.0001) %MON thSI_Tic2_ave_G              =  -3.9490114021152E+00
(PID.TID 0000.0001) %MON thSI_Tic2_ave_S              =  -3.0371692146583E+00
(PID.TID 0000.0001) %MON thSI_Tic2_ave_N              =  -5.2667308677976E+00
(PID.TID 0000.0001) %MON thSI_Tic2_min_S              =  -8.2569429611551E+00
(PID.TID 0000.0001) %MON thSI_Tic2_min_N              =  -7.9425100519873E+00
(PID.TID 0000.0001) %MON thSI_Tic2_max_S              =  -9.6970966866999E-01
(PID.TID 0000.0001) %MON thSI_Tic2_max_N              =  -1.4155921007106E+00
(PID.TID 0000.0001) %MON thSI_TotEnerg_G              =  -3.8035816350274E+22
(PID.TID 0000.0001) // =======================================================
(PID.TID 0000.0001) // End MONITOR Therm.SeaIce statistics
(PID.TID 0000.0001) // =======================================================
 BULKF_FIELDS_LOAD,     36018 : iP,iLd,i0,i1=    1    2    1    2 ; Wght=  0.9000000000  0.1000000000
 EXTERNAL_FIELDS_LOAD,     36018 : iP,iLd,i0,i1=    1    2    1    2 ; Wght=  0.9000000000  0.1000000000
 cg2d: Sum(rhs),rhsMax =   3.91077096186007E+02  2.30765316075772E+02
(PID.TID 0000.0001)                    cg2d_init_res =    2.46217201617502E+00
(PID.TID 0000.0001)                       cg2d_iters =    69
(PID.TID 0000.0001)                         cg2d_res =    5.06753625287934E-07
(PID.TID 0000.0001) // =======================================================
(PID.TID 0000.0001) // Begin MONITOR dynamic field statistics
(PID.TID 0000.0001) // =======================================================
(PID.TID 0000.0001) %MON time_tsnumber                =                 36019
(PID.TID 0000.0001) %MON time_secondsf                =   3.1120416000000E+09
(PID.TID 0000.0001) %MON dynstat_eta_max              =   7.1185331439802E-01
(PID.TID 0000.0001) %MON dynstat_eta_min              =  -1.1942409435754E+01
(PID.TID 0000.0001) %MON dynstat_eta_mean             =  -5.8166579357768E-01
(PID.TID 0000.0001) %MON dynstat_eta_sd               =   1.6958529559164E+00
(PID.TID 0000.0001) %MON dynstat_eta_del2             =   2.1371358659629E-02
(PID.TID 0000.0001) %MON dynstat_uvel_max             =   1.7268010411911E-01
(PID.TID 0000.0001) %MON dynstat_uvel_min             =  -2.6339401281462E-01
(PID.TID 0000.0001) %MON dynstat_uvel_mean            =  -5.1773439390142E-04
(PID.TID 0000.0001) %MON dynstat_uvel_sd              =   1.2965103106272E-02
(PID.TID 0000.0001) %MON dynstat_uvel_del2            =   5.8492388597058E-05
(PID.TID 0000.0001) %MON dynstat_vvel_max             =   1.9189363776304E-01
(PID.TID 0000.0001) %MON dynstat_vvel_min             =  -2.1157642372779E-01
(PID.TID 0000.0001) %MON dynstat_vvel_mean            =  -4.1513499767535E-04
(PID.TID 0000.0001) %MON dynstat_vvel_sd              =   1.3455644268287E-02
(PID.TID 0000.0001) %MON dynstat_vvel_del2            =   5.5771463004312E-05
(PID.TID 0000.0001) %MON dynstat_wvel_max             =   9.3468523021668E-05
(PID.TID 0000.0001) %MON dynstat_wvel_min             =  -1.7619680353919E-04
(PID.TID 0000.0001) %MON dynstat_wvel_mean            =  -1.1484634649719E-09
(PID.TID 0000.0001) %MON dynstat_wvel_sd              =   4.6206284610161E-06
(PID.TID 0000.0001) %MON dynstat_wvel_del2            =   4.0229050548225E-08
(PID.TID 0000.0001) %MON dynstat_theta_max            =   2.9802859903809E+01
(PID.TID 0000.0001) %MON dynstat_theta_min            =  -3.5664063029478E+00
(PID.TID 0000.0001) %MON dynstat_theta_mean           =   3.5040625553071E+00
(PID.TID 0000.0001) %MON dynstat_theta_sd             =   4.7510026624564E+00
(PID.TID 0000.0001) %MON dynstat_theta_del2           =   2.9991465623012E-03
(PID.TID 0000.0001) %MON dynstat_salt_max             =   4.0842327089586E+01
(PID.TID 0000.0001) %MON dynstat_salt_min             =   1.8099487962998E+01
(PID.TID 0000.0001) %MON dynstat_salt_mean            =   3.4756119533163E+01
(PID.TID 0000.0001) %MON dynstat_salt_sd              =   5.1174480152638E-01
(PID.TID 0000.0001) %MON dynstat_salt_del2            =   8.4563933621987E-04
(PID.TID 0000.0001) %MON forcing_qnet_max             =   7.9790302141876E+02
(PID.TID 0000.0001) %MON forcing_qnet_min             =  -2.2869720062091E+02
(PID.TID 0000.0001) %MON forcing_qnet_mean            =  -7.0558242505925E+00
(PID.TID 0000.0001) %MON forcing_qnet_sd              =   1.1495943713529E+02
(PID.TID 0000.0001) %MON forcing_qnet_del2            =   1.0735065860830E+00
(PID.TID 0000.0001) %MON forcing_qsw_max              =  -0.0000000000000E+00
(PID.TID 0000.0001) %MON forcing_qsw_min              =  -3.3584317131916E+02
(PID.TID 0000.0001) %MON forcing_qsw_mean             =  -1.8655459036536E+02
(PID.TID 0000.0001) %MON forcing_qsw_sd               =   7.7502754772047E+01
(PID.TID 0000.0001) %MON forcing_qsw_del2             =   6.3448631489191E-01
(PID.TID 0000.0001) %MON forcing_empmr_max            =   6.2694401337210E-04
(PID.TID 0000.0001) %MON forcing_empmr_min            =  -3.1664152529009E-04
(PID.TID 0000.0001) %MON forcing_empmr_mean           =  -5.1072090745073E-07
(PID.TID 0000.0001) %MON forcing_empmr_sd             =   4.8486925106817E-05
(PID.TID 0000.0001) %MON forcing_empmr_del2           =   9.1977297240424E-07
(PID.TID 0000.0001) %MON forcing_fu_max               =   2.3972677870247E-01
(PID.TID 0000.0001) %MON forcing_fu_min               =  -2.3770170012775E-01
(PID.TID 0000.0001) %MON forcing_fu_mean              =  -3.9920827019745E-03
(PID.TID 0000.0001) %MON forcing_fu_sd                =   6.4926925508109E-02
(PID.TID 0000.0001) %MON forcing_fu_del2              =   2.2128767840564E-04
(PID.TID 0000.0001) %MON forcing_fv_max               =   2.9064945924193E-01
(PID.TID 0000.0001) %MON forcing_fv_min               =  -3.2918415574839E-01
(PID.TID 0000.0001) %MON forcing_fv_mean              =  -1.3738014727260E-02
(PID.TID 0000.0001) %MON forcing_fv_sd                =   7.6066207026079E-02
(PID.TID 0000.0001) %MON forcing_fv_del2              =   2.4963077337507E-04
(PID.TID 0000.0001) %MON advcfl_uvel_max              =   7.4703538272684E-02
(PID.TID 0000.0001) %MON advcfl_vvel_max              =   8.3643733262240E-02
(PID.TID 0000.0001) %MON advcfl_wvel_max              =   5.7446806889759E-02
(PID.TID 0000.0001) %MON advcfl_W_hf_max              =   6.3462889623805E-02
(PID.TID 0000.0001) %MON pe_b_mean                    =  -1.9204688202563E-03
(PID.TID 0000.0001) %MON ke_max                       =   3.4516766779231E-02
(PID.TID 0000.0001) %MON ke_mean                      =   1.6142540156553E-04
(PID.TID 0000.0001) %MON ke_vol                       =   1.3395907693808E+18
(PID.TID 0000.0001) %MON vort_r_min                   =  -1.2974039954090E-06
(PID.TID 0000.0001) %MON vort_r_max                   =   1.4176570101835E-06
(PID.TID 0000.0001) %MON vort_a_mean                  =  -2.0549865324846E-05
(PID.TID 0000.0001) %MON vort_a_sd                    =   7.5259581853209E-05
(PID.TID 0000.0001) %MON vort_p_mean                  =  -2.4787189762720E-05
(PID.TID 0000.0001) %MON vort_p_sd                    =   1.2817300925518E-04
(PID.TID 0000.0001) %MON surfExpan_theta_mean         =   7.1896912452554E-08
(PID.TID 0000.0001) %MON surfExpan_salt_mean          =   1.9170281466717E-08
(PID.TID 0000.0001) // =======================================================
(PID.TID 0000.0001) // End MONITOR dynamic field statistics
(PID.TID 0000.0001) // =======================================================
(PID.TID 0000.0001) // =======================================================
(PID.TID 0000.0001) // Begin MONITOR Therm.SeaIce statistics
(PID.TID 0000.0001) // =======================================================
(PID.TID 0000.0001) %MON thSI_time_sec                =   3.1120416000000E+09
(PID.TID 0000.0001) %MON thSI_Ice_Area_G              =   2.4914915412724E+13
(PID.TID 0000.0001) %MON thSI_Ice_Area_S              =   1.1349038633831E+13
(PID.TID 0000.0001) %MON thSI_Ice_Area_N              =   1.3565876778894E+13
(PID.TID 0000.0001) %MON thSI_IceH_ave_G              =   4.5608365019163E+00
(PID.TID 0000.0001) %MON thSI_IceH_ave_S              =   5.9115011662405E+00
(PID.TID 0000.0001) %MON thSI_IceH_ave_N              =   3.4308877557642E+00
(PID.TID 0000.0001) %MON thSI_IceH_max_S              =   1.0000000000000E+01
(PID.TID 0000.0001) %MON thSI_IceH_max_N              =   1.0000000000000E+01
(PID.TID 0000.0001) %MON thSI_SnwH_ave_G              =   9.8869823751600E-01
(PID.TID 0000.0001) %MON thSI_SnwH_ave_S              =   1.7157297101672E+00
(PID.TID 0000.0001) %MON thSI_SnwH_ave_N              =   3.8047302615578E-01
(PID.TID 0000.0001) %MON thSI_SnwH_max_S              =   4.0929778727177E+00
(PID.TID 0000.0001) %MON thSI_SnwH_max_N              =   4.1068138616568E+00
(PID.TID 0000.0001) %MON thSI_Tsrf_ave_G              =  -1.8046883293728E+01
(PID.TID 0000.0001) %MON thSI_Tsrf_ave_S              =  -2.2414821988697E-01
(PID.TID 0000.0001) %MON thSI_Tsrf_ave_N              =  -3.2957155015217E+01
(PID.TID 0000.0001) %MON thSI_Tsrf_min_S              =  -6.3852919785635E+00
(PID.TID 0000.0001) %MON thSI_Tsrf_min_N              =  -4.7922581559195E+01
(PID.TID 0000.0001) %MON thSI_Tsrf_max_S              =   0.0000000000000E+00
(PID.TID 0000.0001) %MON thSI_Tsrf_max_N              =  -4.9380528077165E+00
(PID.TID 0000.0001) %MON thSI_Tic1_ave_G              =  -8.7202525848818E+00
(PID.TID 0000.0001) %MON thSI_Tic1_ave_S              =  -4.7455515250455E+00
(PID.TID 0000.0001) %MON thSI_Tic1_ave_N              =  -1.4449623600329E+01
(PID.TID 0000.0001) %MON thSI_Tic1_min_S              =  -1.3714814227005E+01
(PID.TID 0000.0001) %MON thSI_Tic1_min_N              =  -2.1953922246532E+01
(PID.TID 0000.0001) %MON thSI_Tic1_max_S              =  -1.3876388924860E-01
(PID.TID 0000.0001) %MON thSI_Tic1_max_N              =  -1.0014584436585E+00
(PID.TID 0000.0001) %MON thSI_Tic2_ave_G              =  -3.9580337060078E+00
(PID.TID 0000.0001) %MON thSI_Tic2_ave_S              =  -3.0329857419623E+00
(PID.TID 0000.0001) %MON thSI_Tic2_ave_N              =  -5.2914529778760E+00
(PID.TID 0000.0001) %MON thSI_Tic2_min_S              =  -8.2205506245177E+00
(PID.TID 0000.0001) %MON thSI_Tic2_min_N              =  -7.9652001662945E+00
(PID.TID 0000.0001) %MON thSI_Tic2_max_S              =  -9.4596144577865E-01
(PID.TID 0000.0001) %MON thSI_Tic2_max_N              =  -1.4280807286865E+00
(PID.TID 0000.0001) %MON thSI_TotEnerg_G              =  -3.8028729840454E+22
(PID.TID 0000.0001) // =======================================================
(PID.TID 0000.0001) // End MONITOR Therm.SeaIce statistics
(PID.TID 0000.0001) // =======================================================
 Computing Diagnostic #     23  ETAN         Counter:       1   Parms: SM      M1      
 Computing Diagnostic #     84  oceFWflx     Counter:       1   Parms: SM      U1      
 Computing Diagnostic #     26  THETA        Counter:       1   Parms: SMR     MR      
 Computing Diagnostic #     27  SALT         Counter:       1   Parms: SMR     MR      
 Compute Stats, Diag. #     80  oceTAUX   vol(   0 ): 3.111E+15  Parms: UU      U1      
 Compute Stats, Diag. #     81  oceTAUY   vol(   0 ): 3.130E+15  Parms: VV      U1      
 Compute Stats, Diag. #     89  TRELAX    vol(   0 ): 3.275E+15  Parms: SM      U1      
 Compute Stats, Diag. #     90  SRELAX    vol(   0 ): 3.275E+15  Parms: SM      U1      
 Compute Stats, Diag. #     91  surForcT  vol(   0 ): 3.275E+15  Parms: SM      U1      
 Compute Stats, Diag. #     92  surForcS  vol(   0 ): 3.275E+15  Parms: SM      U1      
 Compute Stats, Diag. #     93  TFLUX     vol(   0 ): 3.275E+15  Parms: SM      U1      
 Compute Stats, Diag. #     94  SFLUX     vol(   0 ): 3.275E+15  Parms: SM      U1      
 Compute Stats, Diag. #     86  oceQnet   vol(   0 ): 3.275E+15  Parms: SM      U1      
 Compute Stats, Diag. #     85  oceSflux  vol(   0 ): 3.275E+15  Parms: SM      U1      
 Compute Stats, Diag. #     84  oceFWflx  vol(   0 ): 3.275E+15  Parms: SM      U1      
 BULKF_FIELDS_LOAD,     36019 : iP,iLd,i0,i1=    1    2    1    2 ; Wght=  0.8666666667  0.1333333333
 EXTERNAL_FIELDS_LOAD,     36019 : iP,iLd,i0,i1=    1    2    1    2 ; Wght=  0.8666666667  0.1333333333
 cg2d: Sum(rhs),rhsMax =   3.91039564483741E+02  2.30839704695047E+02
(PID.TID 0000.0001)                    cg2d_init_res =    2.46741025334544E+00
(PID.TID 0000.0001)                       cg2d_iters =    69
(PID.TID 0000.0001)                         cg2d_res =    4.94491181519122E-07
(PID.TID 0000.0001) // =======================================================
(PID.TID 0000.0001) // Begin MONITOR dynamic field statistics
(PID.TID 0000.0001) // =======================================================
(PID.TID 0000.0001) %MON time_tsnumber                =                 36020
(PID.TID 0000.0001) %MON time_secondsf                =   3.1121280000000E+09
(PID.TID 0000.0001) %MON dynstat_eta_max              =   7.1090700237449E-01
(PID.TID 0000.0001) %MON dynstat_eta_min              =  -1.1939830746878E+01
(PID.TID 0000.0001) %MON dynstat_eta_mean             =  -5.8160997106188E-01
(PID.TID 0000.0001) %MON dynstat_eta_sd               =   1.6955166070431E+00
(PID.TID 0000.0001) %MON dynstat_eta_del2             =   2.1379736083075E-02
(PID.TID 0000.0001) %MON dynstat_uvel_max             =   1.7264910694056E-01
(PID.TID 0000.0001) %MON dynstat_uvel_min             =  -2.6284756269261E-01
(PID.TID 0000.0001) %MON dynstat_uvel_mean            =  -5.1694399843129E-04
(PID.TID 0000.0001) %MON dynstat_uvel_sd              =   1.2965068644573E-02
(PID.TID 0000.0001) %MON dynstat_uvel_del2            =   5.8490360649905E-05
(PID.TID 0000.0001) %MON dynstat_vvel_max             =   1.9132544835449E-01
(PID.TID 0000.0001) %MON dynstat_vvel_min             =  -2.1156540313073E-01
(PID.TID 0000.0001) %MON dynstat_vvel_mean            =  -4.1447409524693E-04
(PID.TID 0000.0001) %MON dynstat_vvel_sd              =   1.3451184924551E-02
(PID.TID 0000.0001) %MON dynstat_vvel_del2            =   5.5751223726065E-05
(PID.TID 0000.0001) %MON dynstat_wvel_max             =   9.3740842500254E-05
(PID.TID 0000.0001) %MON dynstat_wvel_min             =  -1.7597301328869E-04
(PID.TID 0000.0001) %MON dynstat_wvel_mean            =  -1.1482381906649E-09
(PID.TID 0000.0001) %MON dynstat_wvel_sd              =   4.6200543731540E-06
(PID.TID 0000.0001) %MON dynstat_wvel_del2            =   4.0202668067902E-08
(PID.TID 0000.0001) %MON dynstat_theta_max            =   2.9808318505820E+01
(PID.TID 0000.0001) %MON dynstat_theta_min            =  -3.5844375160841E+00
(PID.TID 0000.0001) %MON dynstat_theta_mean           =   3.5041393532694E+00
(PID.TID 0000.0001) %MON dynstat_theta_sd             =   4.7512005987416E+00
(PID.TID 0000.0001) %MON dynstat_theta_del2           =   3.0043425722307E-03
(PID.TID 0000.0001) %MON dynstat_salt_max             =   4.0842502722776E+01
(PID.TID 0000.0001) %MON dynstat_salt_min             =   1.8100916170244E+01
(PID.TID 0000.0001) %MON dynstat_salt_mean            =   3.4756120177958E+01
(PID.TID 0000.0001) %MON dynstat_salt_sd              =   5.1173754397942E-01
(PID.TID 0000.0001) %MON dynstat_salt_del2            =   8.4637389675588E-04
(PID.TID 0000.0001) %MON forcing_qnet_max             =   7.9130399931479E+02
(PID.TID 0000.0001) %MON forcing_qnet_min             =  -2.2681191210625E+02
(PID.TID 0000.0001) %MON forcing_qnet_mean            =  -7.1232491514846E+00
(PID.TID 0000.0001) %MON forcing_qnet_sd              =   1.1325136443086E+02
(PID.TID 0000.0001) %MON forcing_qnet_del2            =   1.0618263624376E+00
(PID.TID 0000.0001) %MON forcing_qsw_max              =  -0.0000000000000E+00
(PID.TID 0000.0001) %MON forcing_qsw_min              =  -3.3482556793097E+02
(PID.TID 0000.0001) %MON forcing_qsw_mean             =  -1.8651947480022E+02
(PID.TID 0000.0001) %MON forcing_qsw_sd               =   7.7061496883361E+01
(PID.TID 0000.0001) %MON forcing_qsw_del2             =   6.2920964591221E-01
(PID.TID 0000.0001) %MON forcing_empmr_max            =   4.7061450214805E-04
(PID.TID 0000.0001) %MON forcing_empmr_min            =  -3.1733983139859E-04
(PID.TID 0000.0001) %MON forcing_empmr_mean           =  -6.6870722057946E-07
(PID.TID 0000.0001) %MON forcing_empmr_sd             =   4.7036901263188E-05
(PID.TID 0000.0001) %MON forcing_empmr_del2           =   9.0105804312221E-07
(PID.TID 0000.0001) %MON forcing_fu_max               =   2.3665976779186E-01
(PID.TID 0000.0001) %MON forcing_fu_min               =  -2.3356264696351E-01
(PID.TID 0000.0001) %MON forcing_fu_mean              =  -4.0242113930123E-03
(PID.TID 0000.0001) %MON forcing_fu_sd                =   6.4770281337189E-02
(PID.TID 0000.0001) %MON forcing_fu_del2              =   2.1842206420252E-04
(PID.TID 0000.0001) %MON forcing_fv_max               =   2.8984607764745E-01
(PID.TID 0000.0001) %MON forcing_fv_min               =  -3.2574510356961E-01
(PID.TID 0000.0001) %MON forcing_fv_mean              =  -1.3736224733758E-02
(PID.TID 0000.0001) %MON forcing_fv_sd                =   7.5849088889787E-02
(PID.TID 0000.0001) %MON forcing_fv_del2              =   2.4762463092934E-04
(PID.TID 0000.0001) %MON advcfl_uvel_max              =   7.4548554652643E-02
(PID.TID 0000.0001) %MON advcfl_vvel_max              =   8.3396067503825E-02
(PID.TID 0000.0001) %MON advcfl_wvel_max              =   5.7373842823182E-02
(PID.TID 0000.0001) %MON advcfl_W_hf_max              =   6.3382325918467E-02
(PID.TID 0000.0001) %MON pe_b_mean                    =  -1.9200863511217E-03
(PID.TID 0000.0001) %MON ke_max                       =   3.4371055051527E-02
(PID.TID 0000.0001) %MON ke_mean                      =   1.6136871286076E-04
(PID.TID 0000.0001) %MON ke_vol                       =   1.3395907848948E+18
(PID.TID 0000.0001) %MON vort_r_min                   =  -1.3015556045368E-06
(PID.TID 0000.0001) %MON vort_r_max                   =   1.4179819045360E-06
(PID.TID 0000.0001) %MON vort_a_mean                  =  -2.0549865324846E-05
(PID.TID 0000.0001) %MON vort_a_sd                    =   7.5259581857001E-05
(PID.TID 0000.0001) %MON vort_p_mean                  =  -2.4787189168059E-05
(PID.TID 0000.0001) %MON vort_p_sd                    =   1.2817301138243E-04
(PID.TID 0000.0001) %MON surfExpan_theta_mean         =   7.1650896182447E-08
(PID.TID 0000.0001) %MON surfExpan_salt_mean          =   1.9285003289184E-08
(PID.TID 0000.0001) // =======================================================
(PID.TID 0000.0001) // End MONITOR dynamic field statistics
(PID.TID 0000.0001) // =======================================================
(PID.TID 0000.0001) // =======================================================
(PID.TID 0000.0001) // Begin MONITOR Therm.SeaIce statistics
(PID.TID 0000.0001) // =======================================================
(PID.TID 0000.0001) %MON thSI_time_sec                =   3.1121280000000E+09
(PID.TID 0000.0001) %MON thSI_Ice_Area_G              =   2.4902538529901E+13
(PID.TID 0000.0001) %MON thSI_Ice_Area_S              =   1.1308193650219E+13
(PID.TID 0000.0001) %MON thSI_Ice_Area_N              =   1.3594344879682E+13
(PID.TID 0000.0001) %MON thSI_IceH_ave_G              =   4.5624040959019E+00
(PID.TID 0000.0001) %MON thSI_IceH_ave_S              =   5.9261079929416E+00
(PID.TID 0000.0001) %MON thSI_IceH_ave_N              =   3.4280333052703E+00
(PID.TID 0000.0001) %MON thSI_IceH_max_S              =   1.0000000000000E+01
(PID.TID 0000.0001) %MON thSI_IceH_max_N              =   1.0000000000000E+01
(PID.TID 0000.0001) %MON thSI_SnwH_ave_G              =   9.8759923539476E-01
(PID.TID 0000.0001) %MON thSI_SnwH_ave_S              =   1.7149836600438E+00
(PID.TID 0000.0001) %MON thSI_SnwH_ave_N              =   3.8253852780761E-01
(PID.TID 0000.0001) %MON thSI_SnwH_max_S              =   4.0929490715331E+00
(PID.TID 0000.0001) %MON thSI_SnwH_max_N              =   4.1071418908786E+00
(PID.TID 0000.0001) %MON thSI_Tsrf_ave_G              =  -1.8082708646161E+01
(PID.TID 0000.0001) %MON thSI_Tsrf_ave_S              =  -2.3409357511939E-01
(PID.TID 0000.0001) %MON thSI_Tsrf_ave_N              =  -3.2929734920536E+01
(PID.TID 0000.0001) %MON thSI_Tsrf_min_S              =  -6.6878510187616E+00
(PID.TID 0000.0001) %MON thSI_Tsrf_min_N              =  -4.7908606456557E+01
(PID.TID 0000.0001) %MON thSI_Tsrf_max_S              =   0.0000000000000E+00
(PID.TID 0000.0001) %MON thSI_Tsrf_max_N              =  -1.7523908764031E+00
(PID.TID 0000.0001) %MON thSI_Tic1_ave_G              =  -8.7383889785938E+00
(PID.TID 0000.0001) %MON thSI_Tic1_ave_S              =  -4.7283732756659E+00
(PID.TID 0000.0001) %MON thSI_Tic1_ave_N              =  -1.4504799477117E+01
(PID.TID 0000.0001) %MON thSI_Tic1_min_S              =  -1.3599777529318E+01
(PID.TID 0000.0001) %MON thSI_Tic1_min_N              =  -2.2045182504293E+01
(PID.TID 0000.0001) %MON thSI_Tic1_max_S              =  -1.3509480015963E-01
(PID.TID 0000.0001) %MON thSI_Tic1_max_N              =  -1.0322376378668E+00
(PID.TID 0000.0001) %MON thSI_Tic2_ave_G              =  -3.9668436207347E+00
(PID.TID 0000.0001) %MON thSI_Tic2_ave_S              =  -3.0288000170498E+00
(PID.TID 0000.0001) %MON thSI_Tic2_ave_N              =  -5.3157521749857E+00
(PID.TID 0000.0001) %MON thSI_Tic2_min_S              =  -8.1847748009036E+00
(PID.TID 0000.0001) %MON thSI_Tic2_min_N              =  -7.9871361715749E+00
(PID.TID 0000.0001) %MON thSI_Tic2_max_S              =  -9.2283580567440E-01
(PID.TID 0000.0001) %MON thSI_Tic2_max_N              =  -1.4403440744320E+00
(PID.TID 0000.0001) %MON thSI_TotEnerg_G              =  -3.8020791305100E+22
(PID.TID 0000.0001) // =======================================================
(PID.TID 0000.0001) // End MONITOR Therm.SeaIce statistics
(PID.TID 0000.0001) // =======================================================
 Computing Diagnostic #     23  ETAN         Counter:       1   Parms: SM      M1      
 Compute Stats, Diag. #     23  ETAN      vol(   0 ): 3.639E+15  Parms: SM      M1      
 Compute Stats, Diag. #     24  ETANSQ    vol(   0 ): 3.639E+15  Parms: SM P    M1      
 Compute Stats, Diag. #     25  DETADT2   vol(   0 ): 3.639E+15  Parms: SM      M1      
 Compute Stats, Diag. #     26  THETA     vol(   0 ): 1.340E+19  Parms: SMR     MR      
 Compute Stats, Diag. #     27  SALT      vol(   0 ): 1.340E+19  Parms: SMR     MR      
 Compute Stats, Diag. #     79  CONVADJ   vol(   0 ): 1.315E+19  Parms: SMR     LR      
 Compute Stats, Diag. #     23  ETAN      vol(   0 ): 3.639E+14  Parms: SM      M1      
 Compute Stats, Diag. #     26  THETA     vol(   0 ): 1.340E+18  Parms: SMR     MR      
 Compute Stats, Diag. #     27  SALT      vol(   0 ): 1.340E+18  Parms: SMR     MR      
 Compute Stats, Diag. #    211  SI_Fract  vol(   0 ): 3.639E+15  Parms: SM P    M1      
 Compute Stats, Diag. #    211  SI_Fract  vol(   1 ): 1.289E+15  Parms: SM P    M1      
 Compute Stats, Diag. #    211  SI_Fract  vol(   3 ): 7.935E+14  Parms: SM P    M1      
 Compute Stats, Diag. #    212  SI_Thick  vol(   0 ): 2.492E+14  Parms: SM PC   M1      
    use Counter Mate  #    211  SI_Fract  vol(   0 ): 3.639E+15 integral 2.492E+14
 Compute Stats, Diag. #    212  SI_Thick  vol(   1 ): 1.151E+14  Parms: SM PC   M1      
    use Counter Mate  #    211  SI_Fract  vol(   1 ): 1.289E+15 integral 1.151E+14
 Compute Stats, Diag. #    212  SI_Thick  vol(   3 ): 1.342E+14  Parms: SM PC   M1      
    use Counter Mate  #    211  SI_Fract  vol(   3 ): 7.935E+14 integral 1.342E+14
 Compute Stats, Diag. #    213  SI_SnowH  vol(   0 ): 2.492E+14  Parms: SM PC   M1      
    use Counter Mate  #    211  SI_Fract  vol(   0 ): 3.639E+15 integral 2.492E+14
 Compute Stats, Diag. #    213  SI_SnowH  vol(   1 ): 1.151E+14  Parms: SM PC   M1      
    use Counter Mate  #    211  SI_Fract  vol(   1 ): 1.289E+15 integral 1.151E+14
 Compute Stats, Diag. #    213  SI_SnowH  vol(   3 ): 1.342E+14  Parms: SM PC   M1      
    use Counter Mate  #    211  SI_Fract  vol(   3 ): 7.935E+14 integral 1.342E+14
 Compute Stats, Diag. #    214  SI_Tsrf   vol(   0 ): 2.492E+14  Parms: SM  C   M1      
    use Counter Mate  #    211  SI_Fract  vol(   0 ): 3.639E+15 integral 2.492E+14
 Compute Stats, Diag. #    214  SI_Tsrf   vol(   1 ): 1.151E+14  Parms: SM  C   M1      
    use Counter Mate  #    211  SI_Fract  vol(   1 ): 1.289E+15 integral 1.151E+14
 Compute Stats, Diag. #    214  SI_Tsrf   vol(   3 ): 1.342E+14  Parms: SM  C   M1      
    use Counter Mate  #    211  SI_Fract  vol(   3 ): 7.935E+14 integral 1.342E+14
 Compute Stats, Diag. #    215  SI_Tice1  vol(   0 ): 2.492E+14  Parms: SM  C   M1      
    use Counter Mate  #    211  SI_Fract  vol(   0 ): 3.639E+15 integral 2.492E+14
 Compute Stats, Diag. #    215  SI_Tice1  vol(   1 ): 1.151E+14  Parms: SM  C   M1      
    use Counter Mate  #    211  SI_Fract  vol(   1 ): 1.289E+15 integral 1.151E+14
 Compute Stats, Diag. #    215  SI_Tice1  vol(   3 ): 1.342E+14  Parms: SM  C   M1      
    use Counter Mate  #    211  SI_Fract  vol(   3 ): 7.935E+14 integral 1.342E+14
 Compute Stats, Diag. #    216  SI_Tice2  vol(   0 ): 2.492E+14  Parms: SM  C   M1      
    use Counter Mate  #    211  SI_Fract  vol(   0 ): 3.639E+15 integral 2.492E+14
 Compute Stats, Diag. #    216  SI_Tice2  vol(   1 ): 1.151E+14  Parms: SM  C   M1      
    use Counter Mate  #    211  SI_Fract  vol(   1 ): 1.289E+15 integral 1.151E+14
 Compute Stats, Diag. #    216  SI_Tice2  vol(   3 ): 1.342E+14  Parms: SM  C   M1      
    use Counter Mate  #    211  SI_Fract  vol(   3 ): 7.935E+14 integral 1.342E+14
 Compute Stats, Diag. #    217  SI_Qice1  vol(   0 ): 1.137E+15  Parms: SM  C   M1      
    use Counter Mate  #    212  SI_Thick  vol(   0 ): 2.492E+14 integral 1.137E+15
 Compute Stats, Diag. #    217  SI_Qice1  vol(   1 ): 6.744E+14  Parms: SM  C   M1      
    use Counter Mate  #    212  SI_Thick  vol(   1 ): 1.151E+14 integral 6.744E+14
 Compute Stats, Diag. #    217  SI_Qice1  vol(   3 ): 4.626E+14  Parms: SM  C   M1      
    use Counter Mate  #    212  SI_Thick  vol(   3 ): 1.342E+14 integral 4.626E+14
 Compute Stats, Diag. #    218  SI_Qice2  vol(   0 ): 1.137E+15  Parms: SM  C   M1      
    use Counter Mate  #    212  SI_Thick  vol(   0 ): 2.492E+14 integral 1.137E+15
 Compute Stats, Diag. #    218  SI_Qice2  vol(   1 ): 6.744E+14  Parms: SM  C   M1      
    use Counter Mate  #    212  SI_Thick  vol(   1 ): 1.151E+14 integral 6.744E+14
 Compute Stats, Diag. #    218  SI_Qice2  vol(   3 ): 4.626E+14  Parms: SM  C   M1      
    use Counter Mate  #    212  SI_Thick  vol(   3 ): 1.342E+14 integral 4.626E+14
 Compute Stats, Diag. #    222  SIsnwPrc  vol(   0 ): 2.492E+14  Parms: SM  C   M1      
    use Counter Mate  #    220  SI_FrcFx  vol(   0 ): 3.639E+15 integral 2.492E+14
 Compute Stats, Diag. #    222  SIsnwPrc  vol(   1 ): 1.151E+14  Parms: SM  C   M1      
    use Counter Mate  #    220  SI_FrcFx  vol(   1 ): 1.289E+15 integral 1.151E+14
 Compute Stats, Diag. #    222  SIsnwPrc  vol(   3 ): 1.342E+14  Parms: SM  C   M1      
    use Counter Mate  #    220  SI_FrcFx  vol(   3 ): 7.935E+14 integral 1.342E+14
 Compute Stats, Diag. #    221  SIalbedo  vol(   0 ): 2.492E+14  Parms: SM PC   M1      
    use Counter Mate  #    220  SI_FrcFx  vol(   0 ): 3.639E+15 integral 2.492E+14
 Compute Stats, Diag. #    221  SIalbedo  vol(   1 ): 1.151E+14  Parms: SM PC   M1      
    use Counter Mate  #    220  SI_FrcFx  vol(   1 ): 1.289E+15 integral 1.151E+14
 Compute Stats, Diag. #    221  SIalbedo  vol(   3 ): 1.342E+14  Parms: SM PC   M1      
    use Counter Mate  #    220  SI_FrcFx  vol(   3 ): 7.935E+14 integral 1.342E+14
 Compute Stats, Diag. #    219  SIsnwAge  vol(   0 ): 3.639E+15  Parms: SM P    M1      
 Compute Stats, Diag. #    219  SIsnwAge  vol(   1 ): 1.289E+15  Parms: SM P    M1      
 Compute Stats, Diag. #    219  SIsnwAge  vol(   3 ): 7.935E+14  Parms: SM P    M1      
 Compute Stats, Diag. #    225  SIflx2oc  vol(   0 ): 3.639E+15  Parms: SM      M1      
 Compute Stats, Diag. #    225  SIflx2oc  vol(   1 ): 1.289E+15  Parms: SM      M1      
 Compute Stats, Diag. #    225  SIflx2oc  vol(   3 ): 7.935E+14  Parms: SM      M1      
 Compute Stats, Diag. #    226  SIfrw2oc  vol(   0 ): 3.639E+15  Parms: SM      M1      
 Compute Stats, Diag. #    226  SIfrw2oc  vol(   1 ): 1.289E+15  Parms: SM      M1      
 Compute Stats, Diag. #    226  SIfrw2oc  vol(   3 ): 7.935E+14  Parms: SM      M1      
 Compute Stats, Diag. #    227  SIsaltFx  vol(   0 ): 3.639E+15  Parms: SM      M1      
 Compute Stats, Diag. #    227  SIsaltFx  vol(   1 ): 1.289E+15  Parms: SM      M1      
 Compute Stats, Diag. #    227  SIsaltFx  vol(   3 ): 7.935E+14  Parms: SM      M1      
 Compute Stats, Diag. #    223  SIflxAtm  vol(   0 ): 3.639E+15  Parms: SM      M1      
 Compute Stats, Diag. #    223  SIflxAtm  vol(   1 ): 1.289E+15  Parms: SM      M1      
 Compute Stats, Diag. #    223  SIflxAtm  vol(   3 ): 7.935E+14  Parms: SM      M1      
 Compute Stats, Diag. #    224  SIfrwAtm  vol(   0 ): 3.639E+15  Parms: SM      M1      
 Compute Stats, Diag. #    224  SIfrwAtm  vol(   1 ): 1.289E+15  Parms: SM      M1      
 Compute Stats, Diag. #    224  SIfrwAtm  vol(   3 ): 7.935E+14  Parms: SM      M1      
(PID.TID 0000.0001) DIAGSTATS_CLOSE_IO: close file: dynStDiag.0000036000.txt , unit=     9
(PID.TID 0000.0001) DIAGSTATS_CLOSE_IO: close file: surfStDiag.0000036000.txt , unit=    10
(PID.TID 0000.0001) DIAGSTATS_CLOSE_IO: close file: instStDiag.0000036000.txt , unit=    11
(PID.TID 0000.0001) DIAGSTATS_CLOSE_IO: close file: thSIceStDiag.0000036000.txt , unit=    12
(PID.TID 0000.0001) %CHECKPOINT     36020 ckptA
(PID.TID 0000.0001)   Seconds in section "ALL                    [THE_MODEL_MAIN]":
(PID.TID 0000.0001)           User time:   44.250000000000000
(PID.TID 0000.0001)         System time:  0.29999999999999999
(PID.TID 0000.0001)     Wall clock time:   45.148335933685303
(PID.TID 0000.0001)          No. starts:           1
(PID.TID 0000.0001)           No. stops:           1
(PID.TID 0000.0001)   Seconds in section "INITIALISE_FIXED       [THE_MODEL_MAIN]":
(PID.TID 0000.0001)           User time:  0.28000000000000003
(PID.TID 0000.0001)         System time:  7.00000000000000067E-002
(PID.TID 0000.0001)     Wall clock time:  0.47507214546203613
(PID.TID 0000.0001)          No. starts:           1
(PID.TID 0000.0001)           No. stops:           1
(PID.TID 0000.0001)   Seconds in section "THE_MAIN_LOOP          [THE_MODEL_MAIN]":
(PID.TID 0000.0001)           User time:   43.969999999999999
(PID.TID 0000.0001)         System time:  0.22999999999999998
(PID.TID 0000.0001)     Wall clock time:   44.673208951950073
(PID.TID 0000.0001)          No. starts:           1
(PID.TID 0000.0001)           No. stops:           1
(PID.TID 0000.0001)   Seconds in section "INITIALISE_VARIA    [THE_MAIN_LOOP]":
(PID.TID 0000.0001)           User time:  0.82000000000000006
(PID.TID 0000.0001)         System time:  0.10000000000000001
(PID.TID 0000.0001)     Wall clock time:   1.0150320529937744
(PID.TID 0000.0001)          No. starts:           1
(PID.TID 0000.0001)           No. stops:           1
(PID.TID 0000.0001)   Seconds in section "MAIN LOOP           [THE_MAIN_LOOP]":
(PID.TID 0000.0001)           User time:   43.149999999999999
(PID.TID 0000.0001)         System time:  0.12999999999999998
(PID.TID 0000.0001)     Wall clock time:   43.658128976821899
(PID.TID 0000.0001)          No. starts:           1
(PID.TID 0000.0001)           No. stops:           1
(PID.TID 0000.0001)   Seconds in section "FORWARD_STEP        [THE_MAIN_LOOP]":
(PID.TID 0000.0001)           User time:   43.149999999999991
(PID.TID 0000.0001)         System time:  0.12999999999999998
(PID.TID 0000.0001)     Wall clock time:   43.657898664474487
(PID.TID 0000.0001)          No. starts:          20
(PID.TID 0000.0001)           No. stops:          20
(PID.TID 0000.0001)   Seconds in section "UPDATE_R_STAR       [FORWARD_STEP]":
(PID.TID 0000.0001)           User time:   1.2500000000000000
(PID.TID 0000.0001)         System time:   0.0000000000000000
(PID.TID 0000.0001)     Wall clock time:   1.2368993759155273
(PID.TID 0000.0001)          No. starts:          40
(PID.TID 0000.0001)           No. stops:          40
(PID.TID 0000.0001)   Seconds in section "DO_STATEVARS_DIAGS  [FORWARD_STEP]":
(PID.TID 0000.0001)           User time:   1.7100000000000009
(PID.TID 0000.0001)         System time:  9.99999999999998113E-003
(PID.TID 0000.0001)     Wall clock time:   1.7332336902618408
(PID.TID 0000.0001)          No. starts:          60
(PID.TID 0000.0001)           No. stops:          60
(PID.TID 0000.0001)   Seconds in section "LOAD_FIELDS_DRIVER  [FORWARD_STEP]":
(PID.TID 0000.0001)           User time:  0.21000000000000085
(PID.TID 0000.0001)         System time:   0.0000000000000000
(PID.TID 0000.0001)     Wall clock time:  0.23178076744079590
(PID.TID 0000.0001)          No. starts:          20
(PID.TID 0000.0001)           No. stops:          20
(PID.TID 0000.0001)   Seconds in section "BULKF_FIELDS_LOAD  [LOAD_FLDS_DRIVER]":
(PID.TID 0000.0001)           User time:  0.14999999999999147
(PID.TID 0000.0001)         System time:   0.0000000000000000
(PID.TID 0000.0001)     Wall clock time:  0.17352128028869629
(PID.TID 0000.0001)          No. starts:          20
(PID.TID 0000.0001)           No. stops:          20
(PID.TID 0000.0001)   Seconds in section "EXTERNAL_FLDS_LOAD [LOAD_FLDS_DRIVER]":
(PID.TID 0000.0001)           User time:  6.00000000000093792E-002
(PID.TID 0000.0001)         System time:   0.0000000000000000
(PID.TID 0000.0001)     Wall clock time:  5.76918125152587891E-002
(PID.TID 0000.0001)          No. starts:          20
(PID.TID 0000.0001)           No. stops:          20
(PID.TID 0000.0001)   Seconds in section "BULKF_FORCING       [FORWARD_STEP]":
(PID.TID 0000.0001)           User time:  0.42999999999999261
(PID.TID 0000.0001)         System time:   0.0000000000000000
(PID.TID 0000.0001)     Wall clock time:  0.42239928245544434
(PID.TID 0000.0001)          No. starts:          20
(PID.TID 0000.0001)           No. stops:          20
(PID.TID 0000.0001)   Seconds in section "DO_ATMOSPHERIC_PHYS [FORWARD_STEP]":
(PID.TID 0000.0001)           User time:   0.0000000000000000
(PID.TID 0000.0001)         System time:   0.0000000000000000
(PID.TID 0000.0001)     Wall clock time:  1.87635421752929688E-004
(PID.TID 0000.0001)          No. starts:          20
(PID.TID 0000.0001)           No. stops:          20
(PID.TID 0000.0001)   Seconds in section "DO_OCEANIC_PHYS     [FORWARD_STEP]":
(PID.TID 0000.0001)           User time:   5.4299999999999926
(PID.TID 0000.0001)         System time:   0.0000000000000000
(PID.TID 0000.0001)     Wall clock time:   5.4735629558563232
(PID.TID 0000.0001)          No. starts:          20
(PID.TID 0000.0001)           No. stops:          20
(PID.TID 0000.0001)   Seconds in section "THSICE_MAIN     [DO_OCEANIC_PHYS]":
(PID.TID 0000.0001)           User time:  0.36999999999999744
(PID.TID 0000.0001)         System time:   0.0000000000000000
(PID.TID 0000.0001)     Wall clock time:  0.36955213546752930
(PID.TID 0000.0001)          No. starts:          20
(PID.TID 0000.0001)           No. stops:          20
(PID.TID 0000.0001)   Seconds in section "DYNAMICS            [FORWARD_STEP]":
(PID.TID 0000.0001)           User time:   11.819999999999993
(PID.TID 0000.0001)         System time:  9.99999999999998113E-003
(PID.TID 0000.0001)     Wall clock time:   11.852477788925171
(PID.TID 0000.0001)          No. starts:          20
(PID.TID 0000.0001)           No. stops:          20
(PID.TID 0000.0001)   Seconds in section "UPDATE_CG2D         [FORWARD_STEP]":
(PID.TID 0000.0001)           User time:  0.25999999999999801
(PID.TID 0000.0001)         System time:   0.0000000000000000
(PID.TID 0000.0001)     Wall clock time:  0.24578809738159180
(PID.TID 0000.0001)          No. starts:          20
(PID.TID 0000.0001)           No. stops:          20
(PID.TID 0000.0001)   Seconds in section "SOLVE_FOR_PRESSURE  [FORWARD_STEP]":
(PID.TID 0000.0001)           User time:   3.8800000000000026
(PID.TID 0000.0001)         System time:   0.0000000000000000
(PID.TID 0000.0001)     Wall clock time:   3.8709416389465332
(PID.TID 0000.0001)          No. starts:          20
(PID.TID 0000.0001)           No. stops:          20
(PID.TID 0000.0001)   Seconds in section "MOM_CORRECTION_STEP [FORWARD_STEP]":
(PID.TID 0000.0001)           User time:  0.56999999999998607
(PID.TID 0000.0001)         System time:   0.0000000000000000
(PID.TID 0000.0001)     Wall clock time:  0.57208609580993652
(PID.TID 0000.0001)          No. starts:          20
(PID.TID 0000.0001)           No. stops:          20
(PID.TID 0000.0001)   Seconds in section "INTEGR_CONTINUITY   [FORWARD_STEP]":
(PID.TID 0000.0001)           User time:  0.67000000000000171
(PID.TID 0000.0001)         System time:   0.0000000000000000
(PID.TID 0000.0001)     Wall clock time:  0.70480322837829590
(PID.TID 0000.0001)          No. starts:          20
(PID.TID 0000.0001)           No. stops:          20
(PID.TID 0000.0001)   Seconds in section "CALC_R_STAR         [FORWARD_STEP]":
(PID.TID 0000.0001)           User time:  0.17000000000000881
(PID.TID 0000.0001)         System time:   0.0000000000000000
(PID.TID 0000.0001)     Wall clock time:  0.13012838363647461
(PID.TID 0000.0001)          No. starts:          20
(PID.TID 0000.0001)           No. stops:          20
(PID.TID 0000.0001)   Seconds in section "BLOCKING_EXCHANGES  [FORWARD_STEP]":
(PID.TID 0000.0001)           User time:  0.85000000000000853
(PID.TID 0000.0001)         System time:   0.0000000000000000
(PID.TID 0000.0001)     Wall clock time:  0.85541057586669922
(PID.TID 0000.0001)          No. starts:          40
(PID.TID 0000.0001)           No. stops:          40
(PID.TID 0000.0001)   Seconds in section "THERMODYNAMICS      [FORWARD_STEP]":
(PID.TID 0000.0001)           User time:   10.339999999999996
(PID.TID 0000.0001)         System time:   0.0000000000000000
(PID.TID 0000.0001)     Wall clock time:   10.380255937576294
(PID.TID 0000.0001)          No. starts:          20
(PID.TID 0000.0001)           No. stops:          20
(PID.TID 0000.0001)   Seconds in section "TRC_CORRECTION_STEP [FORWARD_STEP]":
(PID.TID 0000.0001)           User time:  0.17000000000000171
(PID.TID 0000.0001)         System time:   0.0000000000000000
(PID.TID 0000.0001)     Wall clock time:  0.16052460670471191
(PID.TID 0000.0001)          No. starts:          20
(PID.TID 0000.0001)           No. stops:          20
(PID.TID 0000.0001)   Seconds in section "DO_STATEVARS_TAVE   [FORWARD_STEP]":
(PID.TID 0000.0001)           User time:   1.8999999999999915
(PID.TID 0000.0001)         System time:   0.0000000000000000
(PID.TID 0000.0001)     Wall clock time:   1.9119429588317871
(PID.TID 0000.0001)          No. starts:          20
(PID.TID 0000.0001)           No. stops:          20
(PID.TID 0000.0001)   Seconds in section "MONITOR             [FORWARD_STEP]":
(PID.TID 0000.0001)           User time:   3.1999999999999957
(PID.TID 0000.0001)         System time:   0.0000000000000000
(PID.TID 0000.0001)     Wall clock time:   3.1854429244995117
(PID.TID 0000.0001)          No. starts:          20
(PID.TID 0000.0001)           No. stops:          20
(PID.TID 0000.0001)   Seconds in section "DO_THE_MODEL_IO     [FORWARD_STEP]":
(PID.TID 0000.0001)           User time:  0.23000000000000398
(PID.TID 0000.0001)         System time:  9.00000000000000522E-002
(PID.TID 0000.0001)     Wall clock time:  0.59239673614501953
(PID.TID 0000.0001)          No. starts:          20
(PID.TID 0000.0001)           No. stops:          20
(PID.TID 0000.0001)   Seconds in section "DO_WRITE_PICKUP     [FORWARD_STEP]":
(PID.TID 0000.0001)           User time:  6.00000000000022737E-002
(PID.TID 0000.0001)         System time:  1.99999999999999623E-002
(PID.TID 0000.0001)     Wall clock time:  9.25703048706054688E-002
(PID.TID 0000.0001)          No. starts:          20
(PID.TID 0000.0001)           No. stops:          20
(PID.TID 0000.0001) // ======================================================
(PID.TID 0000.0001) // Tile <-> Tile communication statistics
(PID.TID 0000.0001) // ======================================================
(PID.TID 0000.0001) // o Tile number: 000001
(PID.TID 0000.0001) //         No. X exchanges =              0
(PID.TID 0000.0001) //            Max. X spins =              0
(PID.TID 0000.0001) //            Min. X spins =     1000000000
(PID.TID 0000.0001) //          Total. X spins =              0
(PID.TID 0000.0001) //            Avg. X spins =       0.00E+00
(PID.TID 0000.0001) //         No. Y exchanges =              0
(PID.TID 0000.0001) //            Max. Y spins =              0
(PID.TID 0000.0001) //            Min. Y spins =     1000000000
(PID.TID 0000.0001) //          Total. Y spins =              0
(PID.TID 0000.0001) //            Avg. Y spins =       0.00E+00
(PID.TID 0000.0001) // o Tile number: 000002
(PID.TID 0000.0001) //         No. X exchanges =              0
(PID.TID 0000.0001) //            Max. X spins =              0
(PID.TID 0000.0001) //            Min. X spins =     1000000000
(PID.TID 0000.0001) //          Total. X spins =              0
(PID.TID 0000.0001) //            Avg. X spins =       0.00E+00
(PID.TID 0000.0001) //         No. Y exchanges =              0
(PID.TID 0000.0001) //            Max. Y spins =              0
(PID.TID 0000.0001) //            Min. Y spins =     1000000000
(PID.TID 0000.0001) //          Total. Y spins =              0
(PID.TID 0000.0001) //            Avg. Y spins =       0.00E+00
(PID.TID 0000.0001) // o Tile number: 000003
(PID.TID 0000.0001) //         No. X exchanges =              0
(PID.TID 0000.0001) //            Max. X spins =              0
(PID.TID 0000.0001) //            Min. X spins =     1000000000
(PID.TID 0000.0001) //          Total. X spins =              0
(PID.TID 0000.0001) //            Avg. X spins =       0.00E+00
(PID.TID 0000.0001) //         No. Y exchanges =              0
(PID.TID 0000.0001) //            Max. Y spins =              0
(PID.TID 0000.0001) //            Min. Y spins =     1000000000
(PID.TID 0000.0001) //          Total. Y spins =              0
(PID.TID 0000.0001) //            Avg. Y spins =       0.00E+00
(PID.TID 0000.0001) // o Tile number: 000004
(PID.TID 0000.0001) //         No. X exchanges =              0
(PID.TID 0000.0001) //            Max. X spins =              0
(PID.TID 0000.0001) //            Min. X spins =     1000000000
(PID.TID 0000.0001) //          Total. X spins =              0
(PID.TID 0000.0001) //            Avg. X spins =       0.00E+00
(PID.TID 0000.0001) //         No. Y exchanges =              0
(PID.TID 0000.0001) //            Max. Y spins =              0
(PID.TID 0000.0001) //            Min. Y spins =     1000000000
(PID.TID 0000.0001) //          Total. Y spins =              0
(PID.TID 0000.0001) //            Avg. Y spins =       0.00E+00
(PID.TID 0000.0001) // o Tile number: 000005
(PID.TID 0000.0001) //         No. X exchanges =              0
(PID.TID 0000.0001) //            Max. X spins =              0
(PID.TID 0000.0001) //            Min. X spins =     1000000000
(PID.TID 0000.0001) //          Total. X spins =              0
(PID.TID 0000.0001) //            Avg. X spins =       0.00E+00
(PID.TID 0000.0001) //         No. Y exchanges =              0
(PID.TID 0000.0001) //            Max. Y spins =              0
(PID.TID 0000.0001) //            Min. Y spins =     1000000000
(PID.TID 0000.0001) //          Total. Y spins =              0
(PID.TID 0000.0001) //            Avg. Y spins =       0.00E+00
(PID.TID 0000.0001) // o Tile number: 000006
(PID.TID 0000.0001) //         No. X exchanges =              0
(PID.TID 0000.0001) //            Max. X spins =              0
(PID.TID 0000.0001) //            Min. X spins =     1000000000
(PID.TID 0000.0001) //          Total. X spins =              0
(PID.TID 0000.0001) //            Avg. X spins =       0.00E+00
(PID.TID 0000.0001) //         No. Y exchanges =              0
(PID.TID 0000.0001) //            Max. Y spins =              0
(PID.TID 0000.0001) //            Min. Y spins =     1000000000
(PID.TID 0000.0001) //          Total. Y spins =              0
(PID.TID 0000.0001) //            Avg. Y spins =       0.00E+00
(PID.TID 0000.0001) // o Tile number: 000007
(PID.TID 0000.0001) //         No. X exchanges =              0
(PID.TID 0000.0001) //            Max. X spins =              0
(PID.TID 0000.0001) //            Min. X spins =     1000000000
(PID.TID 0000.0001) //          Total. X spins =              0
(PID.TID 0000.0001) //            Avg. X spins =       0.00E+00
(PID.TID 0000.0001) //         No. Y exchanges =              0
(PID.TID 0000.0001) //            Max. Y spins =              0
(PID.TID 0000.0001) //            Min. Y spins =     1000000000
(PID.TID 0000.0001) //          Total. Y spins =              0
(PID.TID 0000.0001) //            Avg. Y spins =       0.00E+00
(PID.TID 0000.0001) // o Tile number: 000008
(PID.TID 0000.0001) //         No. X exchanges =              0
(PID.TID 0000.0001) //            Max. X spins =              0
(PID.TID 0000.0001) //            Min. X spins =     1000000000
(PID.TID 0000.0001) //          Total. X spins =              0
(PID.TID 0000.0001) //            Avg. X spins =       0.00E+00
(PID.TID 0000.0001) //         No. Y exchanges =              0
(PID.TID 0000.0001) //            Max. Y spins =              0
(PID.TID 0000.0001) //            Min. Y spins =     1000000000
(PID.TID 0000.0001) //          Total. Y spins =              0
(PID.TID 0000.0001) //            Avg. Y spins =       0.00E+00
(PID.TID 0000.0001) // o Tile number: 000009
(PID.TID 0000.0001) //         No. X exchanges =              0
(PID.TID 0000.0001) //            Max. X spins =              0
(PID.TID 0000.0001) //            Min. X spins =     1000000000
(PID.TID 0000.0001) //          Total. X spins =              0
(PID.TID 0000.0001) //            Avg. X spins =       0.00E+00
(PID.TID 0000.0001) //         No. Y exchanges =              0
(PID.TID 0000.0001) //            Max. Y spins =              0
(PID.TID 0000.0001) //            Min. Y spins =     1000000000
(PID.TID 0000.0001) //          Total. Y spins =              0
(PID.TID 0000.0001) //            Avg. Y spins =       0.00E+00
(PID.TID 0000.0001) // o Tile number: 000010
(PID.TID 0000.0001) //         No. X exchanges =              0
(PID.TID 0000.0001) //            Max. X spins =              0
(PID.TID 0000.0001) //            Min. X spins =     1000000000
(PID.TID 0000.0001) //          Total. X spins =              0
(PID.TID 0000.0001) //            Avg. X spins =       0.00E+00
(PID.TID 0000.0001) //         No. Y exchanges =              0
(PID.TID 0000.0001) //            Max. Y spins =              0
(PID.TID 0000.0001) //            Min. Y spins =     1000000000
(PID.TID 0000.0001) //          Total. Y spins =              0
(PID.TID 0000.0001) //            Avg. Y spins =       0.00E+00
(PID.TID 0000.0001) // o Tile number: 000011
(PID.TID 0000.0001) //         No. X exchanges =              0
(PID.TID 0000.0001) //            Max. X spins =              0
(PID.TID 0000.0001) //            Min. X spins =     1000000000
(PID.TID 0000.0001) //          Total. X spins =              0
(PID.TID 0000.0001) //            Avg. X spins =       0.00E+00
(PID.TID 0000.0001) //         No. Y exchanges =              0
(PID.TID 0000.0001) //            Max. Y spins =              0
(PID.TID 0000.0001) //            Min. Y spins =     1000000000
(PID.TID 0000.0001) //          Total. Y spins =              0
(PID.TID 0000.0001) //            Avg. Y spins =       0.00E+00
(PID.TID 0000.0001) // o Tile number: 000012
(PID.TID 0000.0001) //         No. X exchanges =              0
(PID.TID 0000.0001) //            Max. X spins =              0
(PID.TID 0000.0001) //            Min. X spins =     1000000000
(PID.TID 0000.0001) //          Total. X spins =              0
(PID.TID 0000.0001) //            Avg. X spins =       0.00E+00
(PID.TID 0000.0001) //         No. Y exchanges =              0
(PID.TID 0000.0001) //            Max. Y spins =              0
(PID.TID 0000.0001) //            Min. Y spins =     1000000000
(PID.TID 0000.0001) //          Total. Y spins =              0
(PID.TID 0000.0001) //            Avg. Y spins =       0.00E+00
(PID.TID 0000.0001) // o Thread number: 000001
(PID.TID 0000.0001) //            No. barriers =          25836
(PID.TID 0000.0001) //      Max. barrier spins =              1
(PID.TID 0000.0001) //      Min. barrier spins =              1
(PID.TID 0000.0001) //     Total barrier spins =          25836
(PID.TID 0000.0001) //      Avg. barrier spins =       1.00E+00
PROGRAM MAIN: Execution ended Normally
