(PID.TID 0000.0001) 
(PID.TID 0000.0001) // ======================================================
(PID.TID 0000.0001) //                      MITgcm UV
(PID.TID 0000.0001) //                      =========
(PID.TID 0000.0001) // ======================================================
(PID.TID 0000.0001) // execution environment starting up...
(PID.TID 0000.0001) 
(PID.TID 0000.0001) // MITgcmUV version:  checkpoint63e
(PID.TID 0000.0001) // Build user:        jmc
(PID.TID 0000.0001) // Build host:        baudelaire
(PID.TID 0000.0001) // Build date:        Mon Nov  7 16:07:10 EST 2011
(PID.TID 0000.0001) 
(PID.TID 0000.0001) // =======================================================
(PID.TID 0000.0001) // Execution Environment parameter file "eedata"
(PID.TID 0000.0001) // =======================================================
(PID.TID 0000.0001) ># Example "eedata" file
(PID.TID 0000.0001) ># Lines beginning "#" are comments
(PID.TID 0000.0001) ># nTx - No. threads per process in X
(PID.TID 0000.0001) ># nTy - No. threads per process in Y
(PID.TID 0000.0001) > &EEPARMS
(PID.TID 0000.0001) > /
(PID.TID 0000.0001) ># Note: Some systems use & as the
(PID.TID 0000.0001) ># namelist terminator. Other systems
(PID.TID 0000.0001) ># use a & character (as shown here).
(PID.TID 0000.0001) 
(PID.TID 0000.0001) // =======================================================
(PID.TID 0000.0001) // Computational Grid Specification ( see files "SIZE.h" )
(PID.TID 0000.0001) //                                  ( and "eedata"       )
(PID.TID 0000.0001) // =======================================================
(PID.TID 0000.0001)      nPx =    1 ; /* No. processes in X */
(PID.TID 0000.0001)      nPy =    1 ; /* No. processes in Y */
(PID.TID 0000.0001)      nSx =    2 ; /* No. tiles in X per process */
(PID.TID 0000.0001)      nSy =    2 ; /* No. tiles in Y per process */
(PID.TID 0000.0001)      sNx =   25 ; /* Tile size in X */
(PID.TID 0000.0001)      sNy =   13 ; /* Tile size in Y */
(PID.TID 0000.0001)      OLx =    3 ; /* Tile overlap distance in X */
(PID.TID 0000.0001)      OLy =    3 ; /* Tile overlap distance in Y */
(PID.TID 0000.0001)      nTx =    1 ; /* No. threads in X per process */
(PID.TID 0000.0001)      nTy =    1 ; /* No. threads in Y per process */
(PID.TID 0000.0001)       Nr =   40 ; /* No. levels in the vertical   */
(PID.TID 0000.0001)       Nx =   50 ; /* Total domain size in X ( = nPx*nSx*sNx ) */
(PID.TID 0000.0001)       Ny =   26 ; /* Total domain size in Y ( = nPy*nSy*sNy ) */
(PID.TID 0000.0001)   nTiles =    4 ; /* Total no. tiles per process ( = nSx*nSy ) */
(PID.TID 0000.0001)   nProcs =    1 ; /* Total no. processes ( = nPx*nPy ) */
(PID.TID 0000.0001) nThreads =    1 ; /* Total no. threads per process ( = nTx*nTy ) */
(PID.TID 0000.0001) usingMPI =    F ; /* Flag used to control whether MPI is in use */
(PID.TID 0000.0001)                   /*  note: To execute a program with MPI calls */
(PID.TID 0000.0001)                   /*  it must be launched appropriately e.g     */
(PID.TID 0000.0001)                   /*  "mpirun -np 64 ......"                    */
(PID.TID 0000.0001) useCoupler=    F ;/* Flag used to control communications with   */
(PID.TID 0000.0001)                   /*  other model components, through a coupler */
(PID.TID 0000.0001) debugMode =    F ; /* print debug msg. (sequence of S/R calls)  */
(PID.TID 0000.0001) printMapIncludesZeros=    F ; /* print zeros in Std.Output maps */
(PID.TID 0000.0001) maxLengthPrt1D=   65 /* maxLength of 1D array printed to StdOut */
(PID.TID 0000.0001) 
(PID.TID 0000.0001) // ======================================================
(PID.TID 0000.0001) // Mapping of tiles to threads
(PID.TID 0000.0001) // ======================================================
(PID.TID 0000.0001) // -o- Thread   1, tiles (   1:   2,   1:   2)
(PID.TID 0000.0001) 
(PID.TID 0000.0001) W2_READPARMS: file data.exch2 not found
(PID.TID 0000.0001) => use W2_EXCH2 default: Single sub-domain (nFacets=1)
(PID.TID 0000.0001) W2_useE2ioLayOut=    T ;/* T: use Exch2 glob IO map; F: use model default */
(PID.TID 0000.0001) W2_mapIO        =  -1 ; /* select option for Exch2 global-IO map */
(PID.TID 0000.0001) W2_printMsg     =  -1 ; /* select option for printing information */
(PID.TID 0000.0001) ===== Start setting W2 TOPOLOGY:
(PID.TID 0000.0001)  write to log-file: w2_tile_topology.0000.log
(PID.TID 0000.0001) =====       setting W2 TOPOLOGY: Done
(PID.TID 0000.0001) 
(PID.TID 0000.0001)  INI_PARMS: opening model parameter file "data"
(PID.TID 0000.0001)  OPEN_COPY_DATA_FILE: opening file data
(PID.TID 0000.0001) // =======================================================
(PID.TID 0000.0001) // Parameter file "data"
(PID.TID 0000.0001) // =======================================================
(PID.TID 0000.0001) ># ====================
(PID.TID 0000.0001) ># | Model parameters |
(PID.TID 0000.0001) ># ====================
(PID.TID 0000.0001) >#
(PID.TID 0000.0001) ># Continuous equation parameters
(PID.TID 0000.0001) > &PARM01
(PID.TID 0000.0001) > viscAr=5.E-5,
(PID.TID 0000.0001) ># This is the background viscosity used total=viscah+viscleith
(PID.TID 0000.0001) ># viscAh=1.E2,
(PID.TID 0000.0001) ># viscA4=1.E2,
(PID.TID 0000.0001) ># This is the background viscosity used on vorticity points
(PID.TID 0000.0001) ># viscAhZ=1.E2,
(PID.TID 0000.0001) ># viscA4Z=1.E2,
(PID.TID 0000.0001) ># This is the background viscosity used on divergence points
(PID.TID 0000.0001) ># viscAhD=1.E2,
(PID.TID 0000.0001) ># viscA4D=1.E2,
(PID.TID 0000.0001) ># viscAhd and viscahz are set to viscah if they are unset initially
(PID.TID 0000.0001) >#
(PID.TID 0000.0001) ># This is a maximum gridscale Reynolds number limiter
(PID.TID 0000.0001) ># ViscAhRemax=10,
(PID.TID 0000.0001) ># ViscA4Remax=10,
(PID.TID 0000.0001) ># This is a minimum autoscaling viscosity
(PID.TID 0000.0001) ># ViscAhGridMin=.01,
(PID.TID 0000.0001) ># ViscA4GridMin=.01,
(PID.TID 0000.0001) ># This is the standard Leith Viscosity, prop to grad(curl v_h)
(PID.TID 0000.0001) ># viscC2leith=1.85,
(PID.TID 0000.0001) > viscC4leith=1.85,
(PID.TID 0000.0001) ># This is an additional Leith Viscosity, prop to grad(div.v_h)
(PID.TID 0000.0001) ># It traps instabilities that have no signal in grad(curl v_h)
(PID.TID 0000.0001) ># viscC2leithD=1.85,
(PID.TID 0000.0001) > viscC4leithD=1.85,
(PID.TID 0000.0001) ># This is harmonic Smagorinsky Coefficient
(PID.TID 0000.0001) ># 0.2-0.9=value from 3-d turbulence theory; Smagorinsky (1993)
(PID.TID 0000.0001) ># 2.2-4=stable oceanic values (Griffies and Hallberg, 2000)
(PID.TID 0000.0001) ># 1.85 smag is approximately the same as 1.85 leith+leithd
(PID.TID 0000.0001) ># viscC2Smag=1.0,
(PID.TID 0000.0001) > viscC4Smag=1.0,
(PID.TID 0000.0001) ># This is the max Viscosity used, be it Smag or Leith, and it scales
(PID.TID 0000.0001) ># with grid size and timestep
(PID.TID 0000.0001) ># viscAhGridMax=1.0,
(PID.TID 0000.0001) > viscA4GridMax=1.0,
(PID.TID 0000.0001) ># This uses the full grad(vort) and grad(div)
(PID.TID 0000.0001) > useFullLeith=.TRUE.,
(PID.TID 0000.0001) ># This uses the Strain-Tension form for calculating viscous terms
(PID.TID 0000.0001) ># useStrainTensionVisc=.TRUE.,
(PID.TID 0000.0001) > no_slip_sides=.FALSE.,
(PID.TID 0000.0001) > no_slip_bottom=.FALSE.,
(PID.TID 0000.0001) > ivdc_kappa=10.,
(PID.TID 0000.0001) > implicitDiffusion=.TRUE.,
(PID.TID 0000.0001) > implicitViscosity=.TRUE.,
(PID.TID 0000.0001) > f0=7.29e-5,
(PID.TID 0000.0001) > beta=0.E-11,
(PID.TID 0000.0001) > eosType='LINEAR',
(PID.TID 0000.0001) ># Using Temperature as only Active Tracer
(PID.TID 0000.0001) > tAlpha=2.E-4,
(PID.TID 0000.0001) ># Using Salinity as Spice
(PID.TID 0000.0001) > sBeta =0.E-4,
(PID.TID 0000.0001) > saltStepping=.TRUE.,
(PID.TID 0000.0001) > gravity=9.81,
(PID.TID 0000.0001) > rhonil=1035.,
(PID.TID 0000.0001) > implicitFreeSurface=.TRUE.,
(PID.TID 0000.0001) > usejamartwetpoints=.TRUE.,
(PID.TID 0000.0001) > rigidLid=.FALSE.,
(PID.TID 0000.0001) > staggerTimeStep=.TRUE.,
(PID.TID 0000.0001) > readBinaryPrec=64,
(PID.TID 0000.0001) > writeBinaryPrec=64,
(PID.TID 0000.0001) > tempAdvScheme=33,
(PID.TID 0000.0001) > saltAdvScheme=33,
(PID.TID 0000.0001) > nonHydrostatic=.FALSE.,
(PID.TID 0000.0001) > vectorInvariantMomentum=.TRUE.,
(PID.TID 0000.0001) > /
(PID.TID 0000.0001) >
(PID.TID 0000.0001) ># Elliptic solver parameters
(PID.TID 0000.0001) > &PARM02
(PID.TID 0000.0001) > cg2dMaxIters=1000,
(PID.TID 0000.0001) > cg2dTargetResidual=1.E-11,
(PID.TID 0000.0001) > cg3dMaxIters=40,
(PID.TID 0000.0001) > cg3dTargetResidual=1.E-9,
(PID.TID 0000.0001) > /
(PID.TID 0000.0001) >
(PID.TID 0000.0001) ># Time stepping parameters
(PID.TID 0000.0001) > &PARM03
(PID.TID 0000.0001) > nIter0=36,
(PID.TID 0000.0001) >#endTime=86400.,
(PID.TID 0000.0001) >#- for testing, only run for 12 iterations:
(PID.TID 0000.0001) > nTimeSteps=12,
(PID.TID 0000.0001) > deltaT=1200.,
(PID.TID 0000.0001) > abEps=0.01,
(PID.TID 0000.0001) >#- for testing, reduce amount of output by commenting out output frequencies:
(PID.TID 0000.0001) ># pchkptFreq=43200.,
(PID.TID 0000.0001) >#taveFreq=7200.,
(PID.TID 0000.0001) >#dumpFreq=7200.,
(PID.TID 0000.0001) >#diagFreq=7200.,
(PID.TID 0000.0001) > monitorSelect=2,
(PID.TID 0000.0001) > monitorFreq=1200.,
(PID.TID 0000.0001) > cadjfreq=0.,
(PID.TID 0000.0001) > /
(PID.TID 0000.0001) >
(PID.TID 0000.0001) ># Gridding parameters
(PID.TID 0000.0001) > &PARM04
(PID.TID 0000.0001) > usingCartesianGrid=.TRUE.,
(PID.TID 0000.0001) > delR= 40*5.0,
(PID.TID 0000.0001) > dxSpacing=1.E3,
(PID.TID 0000.0001) > dySpacing=1.E3,
(PID.TID 0000.0001) > /
(PID.TID 0000.0001) >
(PID.TID 0000.0001) ># Input datasets
(PID.TID 0000.0001) > &PARM05
(PID.TID 0000.0001) > bathyFile='topo_sl.bin',
(PID.TID 0000.0001) > hydrogThetaFile='thetaInitial.bin',
(PID.TID 0000.0001) > hydrogSaltFile='spiceInitial.bin',
(PID.TID 0000.0001) > /
(PID.TID 0000.0001) >
(PID.TID 0000.0001) 
(PID.TID 0000.0001)  INI_PARMS ; starts to read PARM01
(PID.TID 0000.0001)  INI_PARMS ; read PARM01 : OK
(PID.TID 0000.0001)  INI_PARMS ; starts to read PARM02
(PID.TID 0000.0001)  INI_PARMS ; read PARM02 : OK
(PID.TID 0000.0001)  INI_PARMS ; starts to read PARM03
(PID.TID 0000.0001)  INI_PARMS ; read PARM03 : OK
(PID.TID 0000.0001)  INI_PARMS ; starts to read PARM04
(PID.TID 0000.0001)  INI_PARMS ; read PARM04 : OK
(PID.TID 0000.0001)  INI_PARMS ; starts to read PARM05
(PID.TID 0000.0001)  INI_PARMS ; read PARM05 : OK
(PID.TID 0000.0001)  INI_PARMS: finished reading file "data"
(PID.TID 0000.0001)  PACKAGES_BOOT: opening data.pkg
(PID.TID 0000.0001)  OPEN_COPY_DATA_FILE: opening file data.pkg
(PID.TID 0000.0001) // =======================================================
(PID.TID 0000.0001) // Parameter file "data.pkg"
(PID.TID 0000.0001) // =======================================================
(PID.TID 0000.0001) ># Packages
(PID.TID 0000.0001) > &PACKAGES
(PID.TID 0000.0001) >  useKPP     = .FALSE.,
(PID.TID 0000.0001) >  useMNC     = .TRUE.,
(PID.TID 0000.0001) >  useDiagnostics=.TRUE.,
(PID.TID 0000.0001) > /
(PID.TID 0000.0001) 
(PID.TID 0000.0001)  PACKAGES_BOOT: finished reading data.pkg
(PID.TID 0000.0001)  MNC_READPARMS: opening file 'data.mnc'
(PID.TID 0000.0001)  OPEN_COPY_DATA_FILE: opening file data.mnc
(PID.TID 0000.0001) // =======================================================
(PID.TID 0000.0001) // Parameter file "data.mnc"
(PID.TID 0000.0001) // =======================================================
(PID.TID 0000.0001) ># Example "data.mnc" file
(PID.TID 0000.0001) ># Lines beginning "#" are comments
(PID.TID 0000.0001) > &MNC_01
(PID.TID 0000.0001) ># mnc_echo_gvtypes=.FALSE.,
(PID.TID 0000.0001) ># mnc_use_indir=.FALSE.,
(PID.TID 0000.0001) > mnc_use_outdir=.TRUE.,
(PID.TID 0000.0001) > mnc_outdir_str='mnc_test_',
(PID.TID 0000.0001) ># mnc_outdir_date=.TRUE.,
(PID.TID 0000.0001) > monitor_mnc=.FALSE.,
(PID.TID 0000.0001) >#snapshot_mnc=.FALSE.,
(PID.TID 0000.0001) >#timeave_mnc=.FALSE.,
(PID.TID 0000.0001) > pickup_read_mnc=.FALSE.,
(PID.TID 0000.0001) > pickup_write_mnc=.FALSE.,
(PID.TID 0000.0001) > /
(PID.TID 0000.0001) ># Note: Some systems use & as the
(PID.TID 0000.0001) ># namelist terminator. Other systems
(PID.TID 0000.0001) ># use a & character (as shown here).
(PID.TID 0000.0001) 
(PID.TID 0000.0001)  MNC_READPARMS: finished reading data.mnc
(PID.TID 0000.0001)  DIAGNOSTICS_READPARMS: opening data.diagnostics
(PID.TID 0000.0001)  OPEN_COPY_DATA_FILE: opening file data.diagnostics
(PID.TID 0000.0001) // =======================================================
(PID.TID 0000.0001) // Parameter file "data.diagnostics"
(PID.TID 0000.0001) // =======================================================
(PID.TID 0000.0001) ># Diagnostic Package Choices
(PID.TID 0000.0001) >#--------------------
(PID.TID 0000.0001) >#  dumpAtLast (logical): always write output at the end of simulation (default=F)
(PID.TID 0000.0001) >#  diag_mnc   (logical): write to NetCDF files (default=useMNC)
(PID.TID 0000.0001) >#--for each output-stream:
(PID.TID 0000.0001) >#  fileName(n) : prefix of the output file name (max 80c long) for outp.stream n
(PID.TID 0000.0001) >#  frequency(n):< 0 : write snap-shot output every |frequency| seconds
(PID.TID 0000.0001) >#               > 0 : write time-average output every frequency seconds
(PID.TID 0000.0001) >#  timePhase(n)     : write at time = timePhase + multiple of |frequency|
(PID.TID 0000.0001) >#    averagingFreq  : frequency (in s) for periodic averaging interval
(PID.TID 0000.0001) >#    averagingPhase : phase     (in s) for periodic averaging interval
(PID.TID 0000.0001) >#    repeatCycle    : number of averaging intervals in 1 cycle
(PID.TID 0000.0001) >#  levels(:,n) : list of levels to write to file (Notes: declared as REAL)
(PID.TID 0000.0001) >#                when this entry is missing, select all common levels of this list
(PID.TID 0000.0001) >#  fields(:,n) : list of selected diagnostics fields (8.c) in outp.stream n
(PID.TID 0000.0001) >#                (see "available_diagnostics.log" file for the full list of diags)
(PID.TID 0000.0001) >#  missing_value(n) : missing value for real-type fields in output file "n"
(PID.TID 0000.0001) >#  fileFlags(n)     : specific code (8c string) for output file "n"
(PID.TID 0000.0001) >#--------------------
(PID.TID 0000.0001) > &DIAGNOSTICS_LIST
(PID.TID 0000.0001) >  dumpAtLast=.TRUE.,
(PID.TID 0000.0001) ># diag_mnc=.FALSE.,
(PID.TID 0000.0001) >#--
(PID.TID 0000.0001) >  fields(1:5,1)  = 'momKE   ','momHDiv ','momVort3',
(PID.TID 0000.0001) >                   'Strain  ','Tension ',
(PID.TID 0000.0001) >   fileName(1) = 'momDiag',
(PID.TID 0000.0001) >  frequency(1) = 864000.,
(PID.TID 0000.0001) >  fields(1:24,2) = 'VISCAHD ','VISCA4D ','VISCAHZ ','VISCA4Z ',
(PID.TID 0000.0001) >                   'VAHDMAX ','VA4DMAX ','VAHZMAX ','VA4ZMAX ',
(PID.TID 0000.0001) >                   'VAHDMIN ','VA4DMIN ','VAHZMIN ','VA4ZMIN ',
(PID.TID 0000.0001) >                   'VAHDLTH ','VA4DLTH ','VAHZLTH ','VA4ZLTH ',
(PID.TID 0000.0001) >                   'VAHDLTHD','VA4DLTHD','VAHZLTHD','VA4ZLTHD',
(PID.TID 0000.0001) >                   'VAHDSMAG','VA4DSMAG','VAHZSMAG','VA4ZSMAG',
(PID.TID 0000.0001) >   fileName(2) = 'viscDiag',
(PID.TID 0000.0001) >  frequency(2) = 864000.,
(PID.TID 0000.0001) > /
(PID.TID 0000.0001) >
(PID.TID 0000.0001) >#--------------------
(PID.TID 0000.0001) ># Parameter for Diagnostics of per level statistics:
(PID.TID 0000.0001) >#--------------------
(PID.TID 0000.0001) >#  diagSt_mnc (logical): write stat-diags to NetCDF files (default=diag_mnc)
(PID.TID 0000.0001) >#  diagSt_regMaskFile : file containing the region-mask to read-in
(PID.TID 0000.0001) >#  nSetRegMskFile   : number of region-mask sets within the region-mask file
(PID.TID 0000.0001) >#  set_regMask(i)   : region-mask set-index that identifies the region "i"
(PID.TID 0000.0001) >#  val_regMask(i)   : region "i" identifier value in the region mask
(PID.TID 0000.0001) >#--for each output-stream:
(PID.TID 0000.0001) >#  stat_fName(n) : prefix of the output file name (max 80c long) for outp.stream n
(PID.TID 0000.0001) >#  stat_freq(n):< 0 : write snap-shot output every |stat_freq| seconds
(PID.TID 0000.0001) >#               > 0 : write time-average output every stat_freq seconds
(PID.TID 0000.0001) >#  stat_phase(n)    : write at time = stat_phase + multiple of |stat_freq|
(PID.TID 0000.0001) >#  stat_region(:,n) : list of "regions" (default: 1 region only=global)
(PID.TID 0000.0001) >#  stat_fields(:,n) : list of selected diagnostics fields (8.c) in outp.stream n
(PID.TID 0000.0001) >#                (see "available_diagnostics.log" file for the full list of diags)
(PID.TID 0000.0001) >#--------------------
(PID.TID 0000.0001) > &DIAG_STATIS_PARMS
(PID.TID 0000.0001) >#- an example just to check the agreement with MONITOR output:
(PID.TID 0000.0001) >#stat_fields(1:5,1)  = 'ETAN    ','UVEL    ','VVEL    ','WVEL    ', 'THETA   ',
(PID.TID 0000.0001) ># stat_fName(1) = 'dynStDiag',
(PID.TID 0000.0001) >#  stat_freq(1) = -864000.,
(PID.TID 0000.0001) ># stat_phase(1) = 0.,
(PID.TID 0000.0001) > /
(PID.TID 0000.0001) >
(PID.TID 0000.0001) 
(PID.TID 0000.0001) S/R DIAGNOSTICS_READPARMS, read namelist "diagnostics_list": start
(PID.TID 0000.0001) S/R DIAGNOSTICS_READPARMS, read namelist "diagnostics_list": OK
(PID.TID 0000.0001) S/R DIAGNOSTICS_READPARMS, read namelist "DIAG_STATIS_PARMS": start
(PID.TID 0000.0001) S/R DIAGNOSTICS_READPARMS, read namelist "DIAG_STATIS_PARMS": OK
(PID.TID 0000.0001)  DIAGNOSTICS_READPARMS: global parameter summary:
(PID.TID 0000.0001)  dumpAtLast = /* always write time-ave diags at the end */
(PID.TID 0000.0001)                   T
(PID.TID 0000.0001)     ;
(PID.TID 0000.0001)  diag_mnc =   /* write NetCDF output files */
(PID.TID 0000.0001)                   T
(PID.TID 0000.0001)     ;
(PID.TID 0000.0001)  useMissingValue = /* put MissingValue where mask = 0 */
(PID.TID 0000.0001)                   F
(PID.TID 0000.0001)     ;
(PID.TID 0000.0001)  diagCG_maxIters = /* max number of iters in diag_cg2d */
(PID.TID 0000.0001)                    1000
(PID.TID 0000.0001)     ;
(PID.TID 0000.0001)  diagCG_resTarget = /* residual target for diag_cg2d */
(PID.TID 0000.0001)                 9.999999999999999E-12
(PID.TID 0000.0001)     ;
(PID.TID 0000.0001) -----------------------------------------------------
(PID.TID 0000.0001)  DIAGNOSTICS_READPARMS: active diagnostics summary:
(PID.TID 0000.0001) -----------------------------------------------------
(PID.TID 0000.0001) Creating Output Stream: momDiag
(PID.TID 0000.0001) Output Frequency:     864000.000000 ; Phase:           0.000000
(PID.TID 0000.0001)  Averaging Freq.:     864000.000000 , Phase:           0.000000 , Cycle:   1
(PID.TID 0000.0001)  missing value:  1.234567000000E+05 ; for integers:   123456789
(PID.TID 0000.0001)  Levels:    will be set later
(PID.TID 0000.0001)  Fields:    momKE    momHDiv  momVort3 Strain   Tension
(PID.TID 0000.0001) Creating Output Stream: viscDiag
(PID.TID 0000.0001) Output Frequency:     864000.000000 ; Phase:           0.000000
(PID.TID 0000.0001)  Averaging Freq.:     864000.000000 , Phase:           0.000000 , Cycle:   1
(PID.TID 0000.0001)  missing value:  1.234567000000E+05 ; for integers:   123456789
(PID.TID 0000.0001)  Levels:    will be set later
(PID.TID 0000.0001)  Fields:    VISCAHD  VISCA4D  VISCAHZ  VISCA4Z  VAHDMAX  VA4DMAX  VAHZMAX  VA4ZMAX  VAHDMIN  VA4DMIN
(PID.TID 0000.0001)  Fields:    VAHZMIN  VA4ZMIN  VAHDLTH  VA4DLTH  VAHZLTH  VA4ZLTH  VAHDLTHD VA4DLTHD VAHZLTHD VA4ZLTHD
(PID.TID 0000.0001)  Fields:    VAHDSMAG VA4DSMAG VAHZSMAG VA4ZSMAG
(PID.TID 0000.0001) -----------------------------------------------------
(PID.TID 0000.0001)  DIAGNOSTICS_READPARMS: statistics diags. summary:
(PID.TID 0000.0001) -----------------------------------------------------
(PID.TID 0000.0001) 
(PID.TID 0000.0001) SET_PARMS: done
(PID.TID 0000.0001) Enter INI_VERTICAL_GRID: setInterFDr=    T ; setCenterDr=    F
(PID.TID 0000.0001) %MON XC_max                       =   4.9500000000000E+04
(PID.TID 0000.0001) %MON XC_min                       =   5.0000000000000E+02
(PID.TID 0000.0001) %MON XC_mean                      =   2.5000000000000E+04
(PID.TID 0000.0001) %MON XC_sd                        =   1.4430869689662E+04
(PID.TID 0000.0001) %MON XG_max                       =   4.9000000000000E+04
(PID.TID 0000.0001) %MON XG_min                       =   0.0000000000000E+00
(PID.TID 0000.0001) %MON XG_mean                      =   2.4500000000000E+04
(PID.TID 0000.0001) %MON XG_sd                        =   1.4430869689662E+04
(PID.TID 0000.0001) %MON DXC_max                      =   1.0000000000000E+03
(PID.TID 0000.0001) %MON DXC_min                      =   1.0000000000000E+03
(PID.TID 0000.0001) %MON DXC_mean                     =   1.0000000000000E+03
(PID.TID 0000.0001) %MON DXC_sd                       =   0.0000000000000E+00
(PID.TID 0000.0001) %MON DXF_max                      =   1.0000000000000E+03
(PID.TID 0000.0001) %MON DXF_min                      =   1.0000000000000E+03
(PID.TID 0000.0001) %MON DXF_mean                     =   1.0000000000000E+03
(PID.TID 0000.0001) %MON DXF_sd                       =   0.0000000000000E+00
(PID.TID 0000.0001) %MON DXG_max                      =   1.0000000000000E+03
(PID.TID 0000.0001) %MON DXG_min                      =   1.0000000000000E+03
(PID.TID 0000.0001) %MON DXG_mean                     =   1.0000000000000E+03
(PID.TID 0000.0001) %MON DXG_sd                       =   0.0000000000000E+00
(PID.TID 0000.0001) %MON DXV_max                      =   1.0000000000000E+03
(PID.TID 0000.0001) %MON DXV_min                      =   1.0000000000000E+03
(PID.TID 0000.0001) %MON DXV_mean                     =   1.0000000000000E+03
(PID.TID 0000.0001) %MON DXV_sd                       =   0.0000000000000E+00
(PID.TID 0000.0001) %MON YC_max                       =   2.5500000000000E+04
(PID.TID 0000.0001) %MON YC_min                       =   5.0000000000000E+02
(PID.TID 0000.0001) %MON YC_mean                      =   1.3000000000000E+04
(PID.TID 0000.0001) %MON YC_sd                        =   7.5000000000000E+03
(PID.TID 0000.0001) %MON YG_max                       =   2.5000000000000E+04
(PID.TID 0000.0001) %MON YG_min                       =   0.0000000000000E+00
(PID.TID 0000.0001) %MON YG_mean                      =   1.2500000000000E+04
(PID.TID 0000.0001) %MON YG_sd                        =   7.5000000000000E+03
(PID.TID 0000.0001) %MON DYC_max                      =   1.0000000000000E+03
(PID.TID 0000.0001) %MON DYC_min                      =   1.0000000000000E+03
(PID.TID 0000.0001) %MON DYC_mean                     =   1.0000000000000E+03
(PID.TID 0000.0001) %MON DYC_sd                       =   0.0000000000000E+00
(PID.TID 0000.0001) %MON DYF_max                      =   1.0000000000000E+03
(PID.TID 0000.0001) %MON DYF_min                      =   1.0000000000000E+03
(PID.TID 0000.0001) %MON DYF_mean                     =   1.0000000000000E+03
(PID.TID 0000.0001) %MON DYF_sd                       =   0.0000000000000E+00
(PID.TID 0000.0001) %MON DYG_max                      =   1.0000000000000E+03
(PID.TID 0000.0001) %MON DYG_min                      =   1.0000000000000E+03
(PID.TID 0000.0001) %MON DYG_mean                     =   1.0000000000000E+03
(PID.TID 0000.0001) %MON DYG_sd                       =   0.0000000000000E+00
(PID.TID 0000.0001) %MON DYU_max                      =   1.0000000000000E+03
(PID.TID 0000.0001) %MON DYU_min                      =   1.0000000000000E+03
(PID.TID 0000.0001) %MON DYU_mean                     =   1.0000000000000E+03
(PID.TID 0000.0001) %MON DYU_sd                       =   0.0000000000000E+00
(PID.TID 0000.0001) %MON RA_max                       =   1.0000000000000E+06
(PID.TID 0000.0001) %MON RA_min                       =   1.0000000000000E+06
(PID.TID 0000.0001) %MON RA_mean                      =   1.0000000000000E+06
(PID.TID 0000.0001) %MON RA_sd                        =   0.0000000000000E+00
(PID.TID 0000.0001) %MON RAW_max                      =   1.0000000000000E+06
(PID.TID 0000.0001) %MON RAW_min                      =   1.0000000000000E+06
(PID.TID 0000.0001) %MON RAW_mean                     =   1.0000000000000E+06
(PID.TID 0000.0001) %MON RAW_sd                       =   0.0000000000000E+00
(PID.TID 0000.0001) %MON RAS_max                      =   1.0000000000000E+06
(PID.TID 0000.0001) %MON RAS_min                      =   1.0000000000000E+06
(PID.TID 0000.0001) %MON RAS_mean                     =   1.0000000000000E+06
(PID.TID 0000.0001) %MON RAS_sd                       =   0.0000000000000E+00
(PID.TID 0000.0001) %MON RAZ_max                      =   1.0000000000000E+06
(PID.TID 0000.0001) %MON RAZ_min                      =   1.0000000000000E+06
(PID.TID 0000.0001) %MON RAZ_mean                     =   1.0000000000000E+06
(PID.TID 0000.0001) %MON RAZ_sd                       =   0.0000000000000E+00
(PID.TID 0000.0001) %MON AngleCS_max                  =   1.0000000000000E+00
(PID.TID 0000.0001) %MON AngleCS_min                  =   1.0000000000000E+00
(PID.TID 0000.0001) %MON AngleCS_mean                 =   1.0000000000000E+00
(PID.TID 0000.0001) %MON AngleCS_sd                   =   0.0000000000000E+00
(PID.TID 0000.0001) %MON AngleSN_max                  =   0.0000000000000E+00
(PID.TID 0000.0001) %MON AngleSN_min                  =   0.0000000000000E+00
(PID.TID 0000.0001) %MON AngleSN_mean                 =   0.0000000000000E+00
(PID.TID 0000.0001) %MON AngleSN_sd                   =   0.0000000000000E+00
(PID.TID 0000.0001)  MDS_READ_FIELD: opening global file: topo_sl.bin
(PID.TID 0000.0001) // =======================================================
(PID.TID 0000.0001) // Field Model R_low (ini_masks_etc)
(PID.TID 0000.0001) // CMIN =         -2.000000000000000E+02
(PID.TID 0000.0001) // CMAX =         -2.000000000000000E+02
(PID.TID 0000.0001) // CINT =          0.000000000000000E+00
(PID.TID 0000.0001) // SYMBOLS (CMIN->CMAX): -abcdefghijklmnopqrstuvwxyz+
(PID.TID 0000.0001) //                  0.0: .
(PID.TID 0000.0001) // RANGE I (Lo:Hi:Step):(    -2:    53:     1)
(PID.TID 0000.0001) // RANGE J (Lo:Hi:Step):(    29:    -2:    -1)
(PID.TID 0000.0001) // RANGE K (Lo:Hi:Step):(   1:   1:   1)
(PID.TID 0000.0001) // =======================================================
(PID.TID 0000.0001) // =======================================================
(PID.TID 0000.0001) // END OF FIELD                                          =
(PID.TID 0000.0001) // =======================================================
(PID.TID 0000.0001) 
(PID.TID 0000.0001) // =======================================================
(PID.TID 0000.0001) // Field Model Ro_surf (ini_masks_etc)
(PID.TID 0000.0001) // CMIN =          1.000000000000000E+32
(PID.TID 0000.0001) // CMAX =         -1.000000000000000E+32
(PID.TID 0000.0001) // CINT =          0.000000000000000E+00
(PID.TID 0000.0001) // SYMBOLS (CMIN->CMAX): -abcdefghijklmnopqrstuvwxyz+
(PID.TID 0000.0001) //                  0.0: .
(PID.TID 0000.0001) // RANGE I (Lo:Hi:Step):(    -2:    53:     1)
(PID.TID 0000.0001) // RANGE J (Lo:Hi:Step):(    29:    -2:    -1)
(PID.TID 0000.0001) // RANGE K (Lo:Hi:Step):(   1:   1:   1)
(PID.TID 0000.0001) // =======================================================
(PID.TID 0000.0001) // =======================================================
(PID.TID 0000.0001) // END OF FIELD                                          =
(PID.TID 0000.0001) // =======================================================
(PID.TID 0000.0001) 
(PID.TID 0000.0001) // =======================================================
(PID.TID 0000.0001) // Field hFacC at iteration          0
(PID.TID 0000.0001) // CMIN =          1.000000000000000E+00
(PID.TID 0000.0001) // CMAX =          1.000000000000000E+00
(PID.TID 0000.0001) // CINT =          0.000000000000000E+00
(PID.TID 0000.0001) // SYMBOLS (CMIN->CMAX): -abcdefghijklmnopqrstuvwxyz+
(PID.TID 0000.0001) //                  0.0: .
(PID.TID 0000.0001) // RANGE I (Lo:Hi:Step):(    -2:    53:     1)
(PID.TID 0000.0001) // RANGE J (Lo:Hi:Step):(    29:    -2:    -1)
(PID.TID 0000.0001) // RANGE K (Lo:Hi:Step):(   1:   1:   1)
(PID.TID 0000.0001) // =======================================================
(PID.TID 0000.0001) // =======================================================
(PID.TID 0000.0001) // END OF FIELD                                          =
(PID.TID 0000.0001) // =======================================================
(PID.TID 0000.0001) 
(PID.TID 0000.0001) // =======================================================
(PID.TID 0000.0001) // Field hFacW at iteration          0
(PID.TID 0000.0001) // CMIN =          1.000000000000000E+00
(PID.TID 0000.0001) // CMAX =          1.000000000000000E+00
(PID.TID 0000.0001) // CINT =          0.000000000000000E+00
(PID.TID 0000.0001) // SYMBOLS (CMIN->CMAX): -abcdefghijklmnopqrstuvwxyz+
(PID.TID 0000.0001) //                  0.0: .
(PID.TID 0000.0001) // RANGE I (Lo:Hi:Step):(    -2:    53:     1)
(PID.TID 0000.0001) // RANGE J (Lo:Hi:Step):(    29:    -2:    -1)
(PID.TID 0000.0001) // RANGE K (Lo:Hi:Step):(   1:   1:   1)
(PID.TID 0000.0001) // =======================================================
(PID.TID 0000.0001) // =======================================================
(PID.TID 0000.0001) // END OF FIELD                                          =
(PID.TID 0000.0001) // =======================================================
(PID.TID 0000.0001) 
(PID.TID 0000.0001) // =======================================================
(PID.TID 0000.0001) // Field hFacS at iteration          0
(PID.TID 0000.0001) // CMIN =          1.000000000000000E+00
(PID.TID 0000.0001) // CMAX =          1.000000000000000E+00
(PID.TID 0000.0001) // CINT =          0.000000000000000E+00
(PID.TID 0000.0001) // SYMBOLS (CMIN->CMAX): -abcdefghijklmnopqrstuvwxyz+
(PID.TID 0000.0001) //                  0.0: .
(PID.TID 0000.0001) // RANGE I (Lo:Hi:Step):(    -2:    53:     1)
(PID.TID 0000.0001) // RANGE J (Lo:Hi:Step):(    29:    -2:    -1)
(PID.TID 0000.0001) // RANGE K (Lo:Hi:Step):(   1:   1:   1)
(PID.TID 0000.0001) // =======================================================
(PID.TID 0000.0001) // =======================================================
(PID.TID 0000.0001) // END OF FIELD                                          =
(PID.TID 0000.0001) // =======================================================
(PID.TID 0000.0001) 
(PID.TID 0000.0001) GAD_INIT_FIXED: GAD_OlMinSize=  2  0  1
(PID.TID 0000.0001) 
(PID.TID 0000.0001) // ===================================
(PID.TID 0000.0001) // GAD parameters :
(PID.TID 0000.0001) // ===================================
(PID.TID 0000.0001) tempAdvScheme =   /* Temp. Horiz.Advection scheme selector */
(PID.TID 0000.0001)                      33
(PID.TID 0000.0001)     ;
(PID.TID 0000.0001) tempVertAdvScheme =   /* Temp. Vert. Advection scheme selector */
(PID.TID 0000.0001)                      33
(PID.TID 0000.0001)     ;
(PID.TID 0000.0001) tempMultiDimAdvec =   /* use Muti-Dim Advec method for Temp */
(PID.TID 0000.0001)                   T
(PID.TID 0000.0001)     ;
(PID.TID 0000.0001) tempSOM_Advection = /* use 2nd Order Moment Advection for Temp */
(PID.TID 0000.0001)                   F
(PID.TID 0000.0001)     ;
(PID.TID 0000.0001) AdamsBashforthGt = /* apply Adams-Bashforth extrapolation on Gt */
(PID.TID 0000.0001)                   F
(PID.TID 0000.0001)     ;
(PID.TID 0000.0001) AdamsBashforth_T = /* apply Adams-Bashforth extrapolation on Temp */
(PID.TID 0000.0001)                   F
(PID.TID 0000.0001)     ;
(PID.TID 0000.0001) saltAdvScheme =   /* Salt. Horiz.advection scheme selector */
(PID.TID 0000.0001)                      33
(PID.TID 0000.0001)     ;
(PID.TID 0000.0001) saltVertAdvScheme =   /* Salt. Vert. Advection scheme selector */
(PID.TID 0000.0001)                      33
(PID.TID 0000.0001)     ;
(PID.TID 0000.0001) saltMultiDimAdvec =   /* use Muti-Dim Advec method for Salt */
(PID.TID 0000.0001)                   T
(PID.TID 0000.0001)     ;
(PID.TID 0000.0001) saltSOM_Advection = /* use 2nd Order Moment Advection for Salt */
(PID.TID 0000.0001)                   F
(PID.TID 0000.0001)     ;
(PID.TID 0000.0001) AdamsBashforthGs = /* apply Adams-Bashforth extrapolation on Gs */
(PID.TID 0000.0001)                   F
(PID.TID 0000.0001)     ;
(PID.TID 0000.0001) AdamsBashforth_S = /* apply Adams-Bashforth extrapolation on Salt */
(PID.TID 0000.0001)                   F
(PID.TID 0000.0001)     ;
(PID.TID 0000.0001) // ===================================
(PID.TID 0000.0001) ------------------------------------------------------------
(PID.TID 0000.0001) DIAGNOSTICS_SET_LEVELS: done
(PID.TID 0000.0001)  Total Nb of available Diagnostics: ndiagt=   178
(PID.TID 0000.0001)  write list of available Diagnostics to file: available_diagnostics.log
(PID.TID 0000.0001) SETDIAG: Allocate 40 x  1 Levels for Diagnostic #   142 momKE
(PID.TID 0000.0001) SETDIAG: Allocate 40 x  1 Levels for Diagnostic #   143 momHDiv
(PID.TID 0000.0001) SETDIAG: Allocate 40 x  1 Levels for Diagnostic #   144 momVort3
(PID.TID 0000.0001) SETDIAG: Allocate 40 x  1 Levels for Diagnostic #   145 Strain
(PID.TID 0000.0001) SETDIAG: Allocate 40 x  1 Levels for Diagnostic #   146 Tension
(PID.TID 0000.0001) SETDIAG: Allocate 40 x  1 Levels for Diagnostic #   118 VISCAHD
(PID.TID 0000.0001) SETDIAG: Allocate 40 x  1 Levels for Diagnostic #   119 VISCA4D
(PID.TID 0000.0001) SETDIAG: Allocate 40 x  1 Levels for Diagnostic #   116 VISCAHZ
(PID.TID 0000.0001) SETDIAG: Allocate 40 x  1 Levels for Diagnostic #   117 VISCA4Z
(PID.TID 0000.0001) SETDIAG: Allocate 40 x  1 Levels for Diagnostic #   124 VAHDMAX
(PID.TID 0000.0001) SETDIAG: Allocate 40 x  1 Levels for Diagnostic #   125 VA4DMAX
(PID.TID 0000.0001) SETDIAG: Allocate 40 x  1 Levels for Diagnostic #   122 VAHZMAX
(PID.TID 0000.0001) SETDIAG: Allocate 40 x  1 Levels for Diagnostic #   123 VA4ZMAX
(PID.TID 0000.0001) SETDIAG: Allocate 40 x  1 Levels for Diagnostic #   128 VAHDMIN
(PID.TID 0000.0001) SETDIAG: Allocate 40 x  1 Levels for Diagnostic #   129 VA4DMIN
(PID.TID 0000.0001) SETDIAG: Allocate 40 x  1 Levels for Diagnostic #   126 VAHZMIN
(PID.TID 0000.0001) SETDIAG: Allocate 40 x  1 Levels for Diagnostic #   127 VA4ZMIN
(PID.TID 0000.0001) SETDIAG: Allocate 40 x  1 Levels for Diagnostic #   132 VAHDLTH
(PID.TID 0000.0001) SETDIAG: Allocate 40 x  1 Levels for Diagnostic #   133 VA4DLTH
(PID.TID 0000.0001) SETDIAG: Allocate 40 x  1 Levels for Diagnostic #   130 VAHZLTH
(PID.TID 0000.0001) SETDIAG: Allocate 40 x  1 Levels for Diagnostic #   131 VA4ZLTH
(PID.TID 0000.0001) SETDIAG: Allocate 40 x  1 Levels for Diagnostic #   136 VAHDLTHD
(PID.TID 0000.0001) SETDIAG: Allocate 40 x  1 Levels for Diagnostic #   137 VA4DLTHD
(PID.TID 0000.0001) SETDIAG: Allocate 40 x  1 Levels for Diagnostic #   134 VAHZLTHD
(PID.TID 0000.0001) SETDIAG: Allocate 40 x  1 Levels for Diagnostic #   135 VA4ZLTHD
(PID.TID 0000.0001) SETDIAG: Allocate 40 x  1 Levels for Diagnostic #   140 VAHDSMAG
(PID.TID 0000.0001) SETDIAG: Allocate 40 x  1 Levels for Diagnostic #   141 VA4DSMAG
(PID.TID 0000.0001) SETDIAG: Allocate 40 x  1 Levels for Diagnostic #   138 VAHZSMAG
(PID.TID 0000.0001) SETDIAG: Allocate 40 x  1 Levels for Diagnostic #   139 VA4ZSMAG
(PID.TID 0000.0001)   space allocated for all diagnostics:    1160 levels
(PID.TID 0000.0001) DIAGNOSTICS_SET_POINTERS: Set levels for Outp.Stream: momDiag
(PID.TID 0000.0001)  Levels:       1.   2.   3.   4.   5.   6.   7.   8.   9.  10.  11.  12.  13.  14.  15.  16.  17.  18.  19.  20.
(PID.TID 0000.0001)  Levels:      21.  22.  23.  24.  25.  26.  27.  28.  29.  30.  31.  32.  33.  34.  35.  36.  37.  38.  39.  40.
(PID.TID 0000.0001) DIAGNOSTICS_SET_POINTERS: Set levels for Outp.Stream: viscDiag
(PID.TID 0000.0001)  Levels:       1.   2.   3.   4.   5.   6.   7.   8.   9.  10.  11.  12.  13.  14.  15.  16.  17.  18.  19.  20.
(PID.TID 0000.0001)  Levels:      21.  22.  23.  24.  25.  26.  27.  28.  29.  30.  31.  32.  33.  34.  35.  36.  37.  38.  39.  40.
(PID.TID 0000.0001) DIAGNOSTICS_SET_POINTERS: done
(PID.TID 0000.0001) ------------------------------------------------------------
(PID.TID 0000.0001) DIAGSTATS_SET_REGIONS: define no region
(PID.TID 0000.0001) ------------------------------------------------------------
(PID.TID 0000.0001)   space allocated for all stats-diags:       0 levels
(PID.TID 0000.0001) DIAGSTATS_SET_POINTERS: done
(PID.TID 0000.0001) ------------------------------------------------------------
(PID.TID 0000.0001) %MON fCori_max                    =   7.2900000000000E-05
(PID.TID 0000.0001) %MON fCori_min                    =   7.2900000000000E-05
(PID.TID 0000.0001) %MON fCori_mean                   =   7.2900000000000E-05
(PID.TID 0000.0001) %MON fCori_sd                     =   4.7433845046241E-19
(PID.TID 0000.0001) %MON fCoriG_max                   =   7.2900000000000E-05
(PID.TID 0000.0001) %MON fCoriG_min                   =   7.2900000000000E-05
(PID.TID 0000.0001) %MON fCoriG_mean                  =   7.2900000000000E-05
(PID.TID 0000.0001) %MON fCoriG_sd                    =   4.7433845046241E-19
(PID.TID 0000.0001) %MON fCoriCos_max                 =   0.0000000000000E+00
(PID.TID 0000.0001) %MON fCoriCos_min                 =   0.0000000000000E+00
(PID.TID 0000.0001) %MON fCoriCos_mean                =   0.0000000000000E+00
(PID.TID 0000.0001) %MON fCoriCos_sd                  =   0.0000000000000E+00
(PID.TID 0000.0001) INI_CG2D: CG2D normalisation factor =  5.0000000000000001E-03
(PID.TID 0000.0001) 
(PID.TID 0000.0001) // =======================================================
(PID.TID 0000.0001) // Model configuration
(PID.TID 0000.0001) // =======================================================
(PID.TID 0000.0001) //
(PID.TID 0000.0001) // "Physical" paramters ( PARM01 in namelist )
(PID.TID 0000.0001) //
(PID.TID 0000.0001) buoyancyRelation = /* Type of relation to get Buoyancy */
(PID.TID 0000.0001)               'OCEANIC'
(PID.TID 0000.0001)     ;
(PID.TID 0000.0001) fluidIsAir   =  /* fluid major constituent is Air */
(PID.TID 0000.0001)                   F
(PID.TID 0000.0001)     ;
(PID.TID 0000.0001) fluidIsWater =  /* fluid major constituent is Water */
(PID.TID 0000.0001)                   T
(PID.TID 0000.0001)     ;
(PID.TID 0000.0001) usingPCoords =  /* use p (or p*) vertical coordinate */
(PID.TID 0000.0001)                   F
(PID.TID 0000.0001)     ;
(PID.TID 0000.0001) usingZCoords =  /* use z (or z*) vertical coordinate */
(PID.TID 0000.0001)                   T
(PID.TID 0000.0001)     ;
(PID.TID 0000.0001) tRef =   /* Reference temperature profile ( oC or K ) */
(PID.TID 0000.0001)    40 @  2.000000000000000E+01              /* K =  1: 40 */
(PID.TID 0000.0001)     ;
(PID.TID 0000.0001) sRef =   /* Reference salinity profile ( psu ) */
(PID.TID 0000.0001)    40 @  3.000000000000000E+01              /* K =  1: 40 */
(PID.TID 0000.0001)     ;
(PID.TID 0000.0001) viscAh  =   /* Lateral eddy viscosity ( m^2/s ) */
(PID.TID 0000.0001)                 0.000000000000000E+00
(PID.TID 0000.0001)     ;
(PID.TID 0000.0001) viscAhMax = /* Maximum lateral eddy viscosity ( m^2/s ) */
(PID.TID 0000.0001)                 1.000000000000000E+21
(PID.TID 0000.0001)     ;
(PID.TID 0000.0001) viscAhGrid = /* Grid dependent lateral eddy viscosity ( non-dim. ) */
(PID.TID 0000.0001)                 0.000000000000000E+00
(PID.TID 0000.0001)     ;
(PID.TID 0000.0001) useFullLeith = /* Use Full Form of Leith Viscosity on/off flag*/
(PID.TID 0000.0001)                   T
(PID.TID 0000.0001)     ;
(PID.TID 0000.0001) useStrainTensionVisc= /* Use StrainTension Form of Viscous Operator flag*/
(PID.TID 0000.0001)                   F
(PID.TID 0000.0001)     ;
(PID.TID 0000.0001) useAreaViscLength = /* Use area for visc length instead of geom. mean*/
(PID.TID 0000.0001)                   F
(PID.TID 0000.0001)     ;
(PID.TID 0000.0001) viscC2leith = /* Leith harmonic visc. factor (on grad(vort),non-dim.) */
(PID.TID 0000.0001)                 0.000000000000000E+00
(PID.TID 0000.0001)     ;
(PID.TID 0000.0001) viscC2leithD = /* Leith harmonic viscosity factor (on grad(div),non-dim.)*/
(PID.TID 0000.0001)                 0.000000000000000E+00
(PID.TID 0000.0001)     ;
(PID.TID 0000.0001) viscC2smag = /* Smagorinsky harmonic viscosity factor (non-dim.) */
(PID.TID 0000.0001)                 0.000000000000000E+00
(PID.TID 0000.0001)     ;
(PID.TID 0000.0001) viscA4  =   /* Lateral biharmonic viscosity ( m^4/s ) */
(PID.TID 0000.0001)                 0.000000000000000E+00
(PID.TID 0000.0001)     ;
(PID.TID 0000.0001) viscA4Max = /* Maximum biharmonic viscosity ( m^2/s ) */
(PID.TID 0000.0001)                 1.000000000000000E+21
(PID.TID 0000.0001)     ;
(PID.TID 0000.0001) viscA4Grid = /* Grid dependent biharmonic viscosity ( non-dim. ) */
(PID.TID 0000.0001)                 0.000000000000000E+00
(PID.TID 0000.0001)     ;
(PID.TID 0000.0001) viscC4leith = /* Leith biharm viscosity factor (on grad(vort), non-dim.)*/
(PID.TID 0000.0001)                 1.850000000000000E+00
(PID.TID 0000.0001)     ;
(PID.TID 0000.0001) viscC4leithD = /* Leith biharm viscosity factor (on grad(div), non-dim.) */
(PID.TID 0000.0001)                 1.850000000000000E+00
(PID.TID 0000.0001)     ;
(PID.TID 0000.0001) viscC4Smag = /* Smagorinsky biharm viscosity factor (non-dim) */
(PID.TID 0000.0001)                 1.000000000000000E+00
(PID.TID 0000.0001)     ;
(PID.TID 0000.0001) no_slip_sides =  /* Viscous BCs: No-slip sides */
(PID.TID 0000.0001)                   F
(PID.TID 0000.0001)     ;
(PID.TID 0000.0001) sideDragFactor = /* side-drag scaling factor (non-dim) */
(PID.TID 0000.0001)                 2.000000000000000E+00
(PID.TID 0000.0001)     ;
(PID.TID 0000.0001) viscArNr = /* vertical profile of vertical viscosity ( m^2/s )*/
(PID.TID 0000.0001)    40 @  5.000000000000000E-05              /* K =  1: 40 */
(PID.TID 0000.0001)     ;
(PID.TID 0000.0001) no_slip_bottom =  /* Viscous BCs: No-slip bottom */
(PID.TID 0000.0001)                   F
(PID.TID 0000.0001)     ;
(PID.TID 0000.0001) bottomDragLinear = /* linear bottom-drag coefficient ( m/s ) */
(PID.TID 0000.0001)                 0.000000000000000E+00
(PID.TID 0000.0001)     ;
(PID.TID 0000.0001) bottomDragQuadratic = /* quadratic bottom-drag coefficient (-) */
(PID.TID 0000.0001)                 0.000000000000000E+00
(PID.TID 0000.0001)     ;
(PID.TID 0000.0001) diffKhT =   /* Laplacian diffusion of heat laterally ( m^2/s ) */
(PID.TID 0000.0001)                 0.000000000000000E+00
(PID.TID 0000.0001)     ;
(PID.TID 0000.0001) diffK4T =   /* Biharmonic diffusion of heat laterally ( m^4/s ) */
(PID.TID 0000.0001)                 0.000000000000000E+00
(PID.TID 0000.0001)     ;
(PID.TID 0000.0001) diffKhS =   /* Laplacian diffusion of salt laterally ( m^2/s ) */
(PID.TID 0000.0001)                 0.000000000000000E+00
(PID.TID 0000.0001)     ;
(PID.TID 0000.0001) diffK4S =   /* Biharmonic diffusion of salt laterally ( m^4/s ) */
(PID.TID 0000.0001)                 0.000000000000000E+00
(PID.TID 0000.0001)     ;
(PID.TID 0000.0001) diffKrNrT = /* vertical profile of vertical diffusion of Temp ( m^2/s )*/
(PID.TID 0000.0001)    40 @  0.000000000000000E+00              /* K =  1: 40 */
(PID.TID 0000.0001)     ;
(PID.TID 0000.0001) diffKrNrS = /* vertical profile of vertical diffusion of Salt ( m^2/s )*/
(PID.TID 0000.0001)    40 @  0.000000000000000E+00              /* K =  1: 40 */
(PID.TID 0000.0001)     ;
(PID.TID 0000.0001) diffKrBL79surf = /* Surface diffusion for Bryan and Lewis 79 ( m^2/s ) */
(PID.TID 0000.0001)                 0.000000000000000E+00
(PID.TID 0000.0001)     ;
(PID.TID 0000.0001) diffKrBL79deep = /* Deep diffusion for Bryan and Lewis 1979 ( m^2/s ) */
(PID.TID 0000.0001)                 0.000000000000000E+00
(PID.TID 0000.0001)     ;
(PID.TID 0000.0001) diffKrBL79scl = /* Depth scale for Bryan and Lewis 1979 ( m ) */
(PID.TID 0000.0001)                 2.000000000000000E+02
(PID.TID 0000.0001)     ;
(PID.TID 0000.0001) diffKrBL79Ho = /* Turning depth for Bryan and Lewis 1979 ( m ) */
(PID.TID 0000.0001)                -2.000000000000000E+03
(PID.TID 0000.0001)     ;
(PID.TID 0000.0001) ivdc_kappa = /* Implicit Vertical Diffusivity for Convection ( m^2/s) */
(PID.TID 0000.0001)                 1.000000000000000E+01
(PID.TID 0000.0001)     ;
(PID.TID 0000.0001) hMixCriteria=  /* Criteria for mixed-layer diagnostic */
(PID.TID 0000.0001)                -8.000000000000000E-01
(PID.TID 0000.0001)     ;
(PID.TID 0000.0001) dRhoSmall =  /* Parameter for mixed-layer diagnostic */
(PID.TID 0000.0001)                 1.000000000000000E-06
(PID.TID 0000.0001)     ;
(PID.TID 0000.0001) hMixSmooth=  /* Smoothing parameter for mixed-layer diagnostic */
(PID.TID 0000.0001)                 0.000000000000000E+00
(PID.TID 0000.0001)     ;
(PID.TID 0000.0001) eosType =  /* Type of Equation of State */
(PID.TID 0000.0001)               'LINEAR'
(PID.TID 0000.0001)     ;
(PID.TID 0000.0001) tAlpha =   /* Linear EOS thermal expansion coefficient ( 1/oC ) */
(PID.TID 0000.0001)                 2.000000000000000E-04
(PID.TID 0000.0001)     ;
(PID.TID 0000.0001) sBeta =   /* Linear EOS haline contraction coefficient ( 1/psu ) */
(PID.TID 0000.0001)                 0.000000000000000E+00
(PID.TID 0000.0001)     ;
(PID.TID 0000.0001) rhonil =   /* Reference density ( kg/m^3 ) */
(PID.TID 0000.0001)                 1.035000000000000E+03
(PID.TID 0000.0001)     ;
(PID.TID 0000.0001) rhoConst =   /* Reference density ( kg/m^3 ) */
(PID.TID 0000.0001)                 1.035000000000000E+03
(PID.TID 0000.0001)     ;
(PID.TID 0000.0001) rhoFacC = /* normalized Reference density @ cell-Center (-) */
(PID.TID 0000.0001)    40 @  1.000000000000000E+00              /* K =  1: 40 */
(PID.TID 0000.0001)     ;
(PID.TID 0000.0001) rhoFacF = /* normalized Reference density @ W-Interface (-) */
(PID.TID 0000.0001)    41 @  1.000000000000000E+00              /* K =  1: 41 */
(PID.TID 0000.0001)     ;
(PID.TID 0000.0001) rhoConstFresh =   /* Reference density ( kg/m^3 ) */
(PID.TID 0000.0001)                 1.035000000000000E+03
(PID.TID 0000.0001)     ;
(PID.TID 0000.0001) gravity =   /* Gravitational acceleration ( m/s^2 ) */
(PID.TID 0000.0001)                 9.810000000000000E+00
(PID.TID 0000.0001)     ;
(PID.TID 0000.0001) gBaro =   /* Barotropic gravity ( m/s^2 ) */
(PID.TID 0000.0001)                 9.810000000000000E+00
(PID.TID 0000.0001)     ;
(PID.TID 0000.0001) rotationPeriod =   /* Rotation Period ( s ) */
(PID.TID 0000.0001)                 8.616400000000000E+04
(PID.TID 0000.0001)     ;
(PID.TID 0000.0001) omega =   /* Angular velocity ( rad/s ) */
(PID.TID 0000.0001)                 7.292123516990375E-05
(PID.TID 0000.0001)     ;
(PID.TID 0000.0001) f0 =   /* Reference coriolis parameter ( 1/s ) */
(PID.TID 0000.0001)                 7.290000000000000E-05
(PID.TID 0000.0001)     ;
(PID.TID 0000.0001) beta =   /* Beta ( 1/(m.s) ) */
(PID.TID 0000.0001)                 0.000000000000000E+00
(PID.TID 0000.0001)     ;
(PID.TID 0000.0001) fPrime =   /* Second coriolis parameter ( 1/s ) */
(PID.TID 0000.0001)                 0.000000000000000E+00
(PID.TID 0000.0001)     ;
(PID.TID 0000.0001) rigidLid =   /* Rigid lid on/off flag */
(PID.TID 0000.0001)                   F
(PID.TID 0000.0001)     ;
(PID.TID 0000.0001) implicitFreeSurface =   /* Implicit free surface on/off flag */
(PID.TID 0000.0001)                   T
(PID.TID 0000.0001)     ;
(PID.TID 0000.0001) freeSurfFac =   /* Implicit free surface factor */
(PID.TID 0000.0001)                 1.000000000000000E+00
(PID.TID 0000.0001)     ;
(PID.TID 0000.0001) implicSurfPress =  /* Surface Pressure implicit factor (0-1)*/
(PID.TID 0000.0001)                 1.000000000000000E+00
(PID.TID 0000.0001)     ;
(PID.TID 0000.0001) implicDiv2Dflow =  /* Barot. Flow Div. implicit factor (0-1)*/
(PID.TID 0000.0001)                 1.000000000000000E+00
(PID.TID 0000.0001)     ;
(PID.TID 0000.0001) exactConserv =  /* Exact Volume Conservation on/off flag*/
(PID.TID 0000.0001)                   F
(PID.TID 0000.0001)     ;
(PID.TID 0000.0001) linFSConserveTr = /* Tracer correction for Lin Free Surface on/off flag*/
(PID.TID 0000.0001)                   F
(PID.TID 0000.0001)     ;
(PID.TID 0000.0001) uniformLin_PhiSurf = /* use uniform Bo_surf on/off flag*/
(PID.TID 0000.0001)                   T
(PID.TID 0000.0001)     ;
(PID.TID 0000.0001) hFacMin =   /* minimum partial cell factor (hFac) */
(PID.TID 0000.0001)                 1.000000000000000E+00
(PID.TID 0000.0001)     ;
(PID.TID 0000.0001) hFacMinDr = /* minimum partial cell thickness ( m) */
(PID.TID 0000.0001)                 1.000000000000000E+00
(PID.TID 0000.0001)     ;
(PID.TID 0000.0001) nonlinFreeSurf = /* Non-linear Free Surf. options (-1,0,1,2,3)*/
(PID.TID 0000.0001)                       0
(PID.TID 0000.0001)      -1,0= Off ; 1,2,3= On, 2=+rescale gU,gV, 3=+update cg2d solv.
(PID.TID 0000.0001)     ;
(PID.TID 0000.0001) hFacInf =   /* lower threshold for hFac (nonlinFreeSurf only)*/
(PID.TID 0000.0001)                 2.000000000000000E-01
(PID.TID 0000.0001)     ;
(PID.TID 0000.0001) hFacSup =   /* upper threshold for hFac (nonlinFreeSurf only)*/
(PID.TID 0000.0001)                 2.000000000000000E+00
(PID.TID 0000.0001)     ;
(PID.TID 0000.0001) select_rStar = /* r* Vertical coord. options (=0 r coord.; >0 uses r*)*/
(PID.TID 0000.0001)                       0
(PID.TID 0000.0001)     ;
(PID.TID 0000.0001) selectAddFluid = /* option for mass source/sink of fluid (=0: off) */
(PID.TID 0000.0001)                       0
(PID.TID 0000.0001)     ;
(PID.TID 0000.0001) useRealFreshWaterFlux = /* Real Fresh Water Flux on/off flag*/
(PID.TID 0000.0001)                   F
(PID.TID 0000.0001)     ;
(PID.TID 0000.0001) temp_EvPrRn = /* Temp. of Evap/Prec/R (UNSET=use local T)(oC)*/
(PID.TID 0000.0001)                 1.234567000000000E+05
(PID.TID 0000.0001)     ;
(PID.TID 0000.0001) salt_EvPrRn = /* Salin. of Evap/Prec/R (UNSET=use local S)(psu)*/
(PID.TID 0000.0001)                 0.000000000000000E+00
(PID.TID 0000.0001)     ;
(PID.TID 0000.0001) temp_addMass = /* Temp. of addMass array (UNSET=use local T)(oC)*/
(PID.TID 0000.0001)                 1.234567000000000E+05
(PID.TID 0000.0001)     ;
(PID.TID 0000.0001) salt_addMass = /* Salin. of addMass array (UNSET=use local S)(psu)*/
(PID.TID 0000.0001)                 0.000000000000000E+00
(PID.TID 0000.0001)     ;
(PID.TID 0000.0001) convertFW2Salt = /* convert F.W. Flux to Salt Flux (-1=use local S)(psu)*/
(PID.TID 0000.0001)                 3.500000000000000E+01
(PID.TID 0000.0001)     ;
(PID.TID 0000.0001) use3Dsolver = /* use 3-D pressure solver on/off flag */
(PID.TID 0000.0001)                   F
(PID.TID 0000.0001)     ;
(PID.TID 0000.0001) nonHydrostatic =  /* Non-Hydrostatic on/off flag */
(PID.TID 0000.0001)                   F
(PID.TID 0000.0001)     ;
(PID.TID 0000.0001) nh_Am2 = /* Non-Hydrostatic terms scaling factor */
(PID.TID 0000.0001)                 1.000000000000000E+00
(PID.TID 0000.0001)     ;
(PID.TID 0000.0001) implicitNHPress = /* Non-Hyd Pressure implicit factor (0-1)*/
(PID.TID 0000.0001)                 1.000000000000000E+00
(PID.TID 0000.0001)     ;
(PID.TID 0000.0001) selectNHfreeSurf = /* Non-Hyd (free-)Surface option */
(PID.TID 0000.0001)                       0
(PID.TID 0000.0001)     ;
(PID.TID 0000.0001) quasiHydrostatic = /* Quasi-Hydrostatic on/off flag */
(PID.TID 0000.0001)                   F
(PID.TID 0000.0001)     ;
(PID.TID 0000.0001) momStepping =  /* Momentum equation on/off flag */
(PID.TID 0000.0001)                   T
(PID.TID 0000.0001)     ;
(PID.TID 0000.0001) vectorInvariantMomentum= /* Vector-Invariant Momentum on/off */
(PID.TID 0000.0001)                   T
(PID.TID 0000.0001)     ;
(PID.TID 0000.0001) momAdvection =  /* Momentum advection on/off flag */
(PID.TID 0000.0001)                   T
(PID.TID 0000.0001)     ;
(PID.TID 0000.0001) momViscosity =  /* Momentum viscosity on/off flag */
(PID.TID 0000.0001)                   T
(PID.TID 0000.0001)     ;
(PID.TID 0000.0001) momImplVertAdv= /* Momentum implicit vert. advection on/off*/
(PID.TID 0000.0001)                   F
(PID.TID 0000.0001)     ;
(PID.TID 0000.0001) implicitViscosity = /* Implicit viscosity on/off flag */
(PID.TID 0000.0001)                   T
(PID.TID 0000.0001)     ;
(PID.TID 0000.0001) metricTerms =  /* metric-Terms on/off flag */
(PID.TID 0000.0001)                   F
(PID.TID 0000.0001)     ;
(PID.TID 0000.0001) useNHMTerms = /* Non-Hydrostatic Metric-Terms on/off */
(PID.TID 0000.0001)                   F
(PID.TID 0000.0001)     ;
(PID.TID 0000.0001) selectCoriMap = /* Coriolis Map options (0,1,2,3)*/
(PID.TID 0000.0001)                       1
(PID.TID 0000.0001)     0= f-Plane ; 1= Beta-Plane ; 2= Spherical ; 3= read from file
(PID.TID 0000.0001)     ;
(PID.TID 0000.0001) use3dCoriolis = /* 3-D Coriolis on/off flag */
(PID.TID 0000.0001)                   F
(PID.TID 0000.0001)     ;
(PID.TID 0000.0001) useCoriolis =  /* Coriolis on/off flag */
(PID.TID 0000.0001)                   T
(PID.TID 0000.0001)     ;
(PID.TID 0000.0001) useCDscheme =  /* CD scheme on/off flag */
(PID.TID 0000.0001)                   F
(PID.TID 0000.0001)     ;
(PID.TID 0000.0001) useEnergyConservingCoriolis= /* Flx-Form Coriolis scheme flag */
(PID.TID 0000.0001)                   F
(PID.TID 0000.0001)     ;
(PID.TID 0000.0001) useJamartWetPoints= /* Coriolis WetPoints method flag */
(PID.TID 0000.0001)                   T
(PID.TID 0000.0001)     ;
(PID.TID 0000.0001) useJamartMomAdv= /* V.I Non-linear terms Jamart flag */
(PID.TID 0000.0001)                   F
(PID.TID 0000.0001)     ;
(PID.TID 0000.0001) useAbsVorticity= /* V.I Works with f+zeta in Coriolis */
(PID.TID 0000.0001)                   F
(PID.TID 0000.0001)     ;
(PID.TID 0000.0001) selectVortScheme= /* V.I Scheme selector for Vorticity-Term */
(PID.TID 0000.0001)                       1
(PID.TID 0000.0001)    = 0 : enstrophy (Shallow-Water Eq.) conserving scheme by Sadourny, JAS 75
(PID.TID 0000.0001)    = 1 : same as 0 with modified hFac
(PID.TID 0000.0001)    = 2 : energy conserving scheme (used by Sadourny in JAS 75 paper)
(PID.TID 0000.0001)    = 3 : energy (general) and enstrophy (2D, nonDiv.) conserving scheme
(PID.TID 0000.0001)          from Sadourny (Burridge & Haseler, ECMWF Rep.4, 1977)
(PID.TID 0000.0001)     ;
(PID.TID 0000.0001) upwindVorticity= /* V.I Upwind bias vorticity flag */
(PID.TID 0000.0001)                   F
(PID.TID 0000.0001)     ;
(PID.TID 0000.0001) highOrderVorticity= /* V.I High order vort. advect. flag */
(PID.TID 0000.0001)                   F
(PID.TID 0000.0001)     ;
(PID.TID 0000.0001) upwindShear= /* V.I Upwind vertical Shear advection flag */
(PID.TID 0000.0001)                   F
(PID.TID 0000.0001)     ;
(PID.TID 0000.0001) selectKEscheme= /* V.I Kinetic Energy scheme selector */
(PID.TID 0000.0001)                       0
(PID.TID 0000.0001)     ;
(PID.TID 0000.0001) momForcing =  /* Momentum forcing on/off flag */
(PID.TID 0000.0001)                   T
(PID.TID 0000.0001)     ;
(PID.TID 0000.0001) momPressureForcing =  /* Momentum pressure term on/off flag */
(PID.TID 0000.0001)                   T
(PID.TID 0000.0001)     ;
(PID.TID 0000.0001) implicitIntGravWave= /* Implicit Internal Gravity Wave flag */
(PID.TID 0000.0001)                   F
(PID.TID 0000.0001)     ;
(PID.TID 0000.0001) staggerTimeStep =   /* Stagger time stepping on/off flag */
(PID.TID 0000.0001)                   T
(PID.TID 0000.0001)     ;
(PID.TID 0000.0001) multiDimAdvection =   /* enable/disable Multi-Dim Advection */
(PID.TID 0000.0001)                   T
(PID.TID 0000.0001)     ;
(PID.TID 0000.0001) useMultiDimAdvec =   /* Multi-Dim Advection is/is-not used */
(PID.TID 0000.0001)                   T
(PID.TID 0000.0001)     ;
(PID.TID 0000.0001) implicitDiffusion = /* Implicit Diffusion on/off flag */
(PID.TID 0000.0001)                   T
(PID.TID 0000.0001)     ;
(PID.TID 0000.0001) tempStepping =  /* Temperature equation on/off flag */
(PID.TID 0000.0001)                   T
(PID.TID 0000.0001)     ;
(PID.TID 0000.0001) tempAdvection=  /* Temperature advection on/off flag */
(PID.TID 0000.0001)                   T
(PID.TID 0000.0001)     ;
(PID.TID 0000.0001) tempImplVertAdv = /* Temp. implicit vert. advection on/off */
(PID.TID 0000.0001)                   F
(PID.TID 0000.0001)     ;
(PID.TID 0000.0001) tempForcing  =  /* Temperature forcing on/off flag */
(PID.TID 0000.0001)                   T
(PID.TID 0000.0001)     ;
(PID.TID 0000.0001) tempIsActiveTr = /* Temp. is a dynamically Active Tracer */
(PID.TID 0000.0001)                   T
(PID.TID 0000.0001)     ;
(PID.TID 0000.0001) saltStepping =  /* Salinity equation on/off flag */
(PID.TID 0000.0001)                   T
(PID.TID 0000.0001)     ;
(PID.TID 0000.0001) saltAdvection=  /* Salinity advection on/off flag */
(PID.TID 0000.0001)                   T
(PID.TID 0000.0001)     ;
(PID.TID 0000.0001) saltImplVertAdv = /* Sali. implicit vert. advection on/off */
(PID.TID 0000.0001)                   F
(PID.TID 0000.0001)     ;
(PID.TID 0000.0001) saltForcing  =  /* Salinity forcing on/off flag */
(PID.TID 0000.0001)                   T
(PID.TID 0000.0001)     ;
(PID.TID 0000.0001) saltIsActiveTr = /* Salt  is a dynamically Active Tracer */
(PID.TID 0000.0001)                   F
(PID.TID 0000.0001)     ;
(PID.TID 0000.0001)  readBinaryPrec = /* Precision used for reading binary files */
(PID.TID 0000.0001)                      64
(PID.TID 0000.0001)     ;
(PID.TID 0000.0001) writeBinaryPrec = /* Precision used for writing binary files */
(PID.TID 0000.0001)                      64
(PID.TID 0000.0001)     ;
(PID.TID 0000.0001)  globalFiles = /* write "global" (=not per tile) files */
(PID.TID 0000.0001)                   F
(PID.TID 0000.0001)     ;
(PID.TID 0000.0001)  useSingleCpuIO = /* only master MPI process does I/O */
(PID.TID 0000.0001)                   F
(PID.TID 0000.0001)     ;
(PID.TID 0000.0001) /* debLev[*]  : level of debug & auxiliary message printing */
(PID.TID 0000.0001) debLevZero =  0 ; /* level of disabled aux. msg printing */
(PID.TID 0000.0001)    debLevA =  1 ; /* level of minimum  aux. msg printing */
(PID.TID 0000.0001)    debLevB =  2 ; /* level of low aux. print (report read-file opening)*/
(PID.TID 0000.0001)    debLevC =  3 ; /* level of moderate debug prt (most pkgs debug msg) */
(PID.TID 0000.0001)    debLevD =  4 ; /* level of enhanced debug prt (add DEBUG_STATS prt) */
(PID.TID 0000.0001)    debLevE =  5 ; /* level of extensive debug printing */
(PID.TID 0000.0001) debugLevel =  /* select debug printing level */
(PID.TID 0000.0001)                       2
(PID.TID 0000.0001)     ;
(PID.TID 0000.0001) //
(PID.TID 0000.0001) // Elliptic solver(s) paramters ( PARM02 in namelist )
(PID.TID 0000.0001) //
(PID.TID 0000.0001) cg2dMaxIters =   /* Upper limit on 2d con. grad iterations  */
(PID.TID 0000.0001)                    1000
(PID.TID 0000.0001)     ;
(PID.TID 0000.0001) cg2dChkResFreq =   /* 2d con. grad convergence test frequency */
(PID.TID 0000.0001)                       1
(PID.TID 0000.0001)     ;
(PID.TID 0000.0001) cg2dTargetResidual =   /* 2d con. grad target residual  */
(PID.TID 0000.0001)                 9.999999999999999E-12
(PID.TID 0000.0001)     ;
(PID.TID 0000.0001) cg2dTargetResWunit =   /* CG2d target residual [W units] */
(PID.TID 0000.0001)                -1.000000000000000E+00
(PID.TID 0000.0001)     ;
(PID.TID 0000.0001) cg2dPreCondFreq =   /* Freq. for updating cg2d preconditioner */
(PID.TID 0000.0001)                       1
(PID.TID 0000.0001)     ;
(PID.TID 0000.0001) useSRCGSolver =  /* use single reduction CG solver(s) */
(PID.TID 0000.0001)                   F
(PID.TID 0000.0001)     ;
(PID.TID 0000.0001) printResidualFreq = /* Freq. for printing CG residual */
(PID.TID 0000.0001)                       0
(PID.TID 0000.0001)     ;
(PID.TID 0000.0001) //
(PID.TID 0000.0001) // Time stepping paramters ( PARM03 in namelist )
(PID.TID 0000.0001) //
(PID.TID 0000.0001) deltaTmom =   /* Momentum equation timestep ( s ) */
(PID.TID 0000.0001)                 1.200000000000000E+03
(PID.TID 0000.0001)     ;
(PID.TID 0000.0001) deltaTfreesurf = /* FreeSurface equation timestep ( s ) */
(PID.TID 0000.0001)                 1.200000000000000E+03
(PID.TID 0000.0001)     ;
(PID.TID 0000.0001) dTtracerLev =  /* Tracer equation timestep ( s ) */
(PID.TID 0000.0001)    40 @  1.200000000000000E+03              /* K =  1: 40 */
(PID.TID 0000.0001)     ;
(PID.TID 0000.0001) deltaTClock  =   /* Model clock timestep ( s ) */
(PID.TID 0000.0001)                 1.200000000000000E+03
(PID.TID 0000.0001)     ;
(PID.TID 0000.0001) cAdjFreq =   /* Convective adjustment interval ( s ) */
(PID.TID 0000.0001)                 0.000000000000000E+00
(PID.TID 0000.0001)     ;
(PID.TID 0000.0001) momForcingOutAB = /* =1: take Momentum Forcing out of Adams-Bash. stepping */
(PID.TID 0000.0001)                       0
(PID.TID 0000.0001)     ;
(PID.TID 0000.0001) tracForcingOutAB = /* =1: take T,S,pTr Forcing out of Adams-Bash. stepping */
(PID.TID 0000.0001)                       0
(PID.TID 0000.0001)     ;
(PID.TID 0000.0001) momDissip_In_AB = /* put Dissipation Tendency in Adams-Bash. stepping */
(PID.TID 0000.0001)                   T
(PID.TID 0000.0001)     ;
(PID.TID 0000.0001) doAB_onGtGs = /* apply AB on Tendencies (rather than on T,S)*/
(PID.TID 0000.0001)                   T
(PID.TID 0000.0001)     ;
(PID.TID 0000.0001) abEps =   /* Adams-Bashforth-2 stabilizing weight */
(PID.TID 0000.0001)                 1.000000000000000E-02
(PID.TID 0000.0001)     ;
(PID.TID 0000.0001) pickupStrictlyMatch= /* stop if pickup do not strictly match */
(PID.TID 0000.0001)                   T
(PID.TID 0000.0001)     ;
(PID.TID 0000.0001) nIter0   =   /* Run starting timestep number */
(PID.TID 0000.0001)                      36
(PID.TID 0000.0001)     ;
(PID.TID 0000.0001) nTimeSteps = /* Number of timesteps */
(PID.TID 0000.0001)                      12
(PID.TID 0000.0001)     ;
(PID.TID 0000.0001) nEndIter =   /* Run ending timestep number */
(PID.TID 0000.0001)                      48
(PID.TID 0000.0001)     ;
(PID.TID 0000.0001) baseTime =   /* Model base time ( s ) */
(PID.TID 0000.0001)                 0.000000000000000E+00
(PID.TID 0000.0001)     ;
(PID.TID 0000.0001) startTime =  /* Run start time ( s ) */
(PID.TID 0000.0001)                 4.320000000000000E+04
(PID.TID 0000.0001)     ;
(PID.TID 0000.0001) endTime  =   /* Integration ending time ( s ) */
(PID.TID 0000.0001)                 5.760000000000000E+04
(PID.TID 0000.0001)     ;
(PID.TID 0000.0001) pChkPtFreq = /* Permanent restart/pickup file interval ( s ) */
(PID.TID 0000.0001)                 0.000000000000000E+00
(PID.TID 0000.0001)     ;
(PID.TID 0000.0001) chkPtFreq  = /* Rolling restart/pickup file interval ( s ) */
(PID.TID 0000.0001)                 0.000000000000000E+00
(PID.TID 0000.0001)     ;
(PID.TID 0000.0001) pickup_write_mdsio =   /* Model IO flag. */
(PID.TID 0000.0001)                   T
(PID.TID 0000.0001)     ;
(PID.TID 0000.0001) pickup_read_mdsio =   /* Model IO flag. */
(PID.TID 0000.0001)                   T
(PID.TID 0000.0001)     ;
(PID.TID 0000.0001) pickup_write_mnc =   /* Model IO flag. */
(PID.TID 0000.0001)                   F
(PID.TID 0000.0001)     ;
(PID.TID 0000.0001) pickup_read_mnc =   /* Model IO flag. */
(PID.TID 0000.0001)                   F
(PID.TID 0000.0001)     ;
(PID.TID 0000.0001) pickup_write_immed =   /* Model IO flag. */
(PID.TID 0000.0001)                   F
(PID.TID 0000.0001)     ;
(PID.TID 0000.0001) writePickupAtEnd =   /* Model IO flag. */
(PID.TID 0000.0001)                   T
(PID.TID 0000.0001)     ;
(PID.TID 0000.0001) dumpFreq =   /* Model state write out interval ( s ). */
(PID.TID 0000.0001)                 0.000000000000000E+00
(PID.TID 0000.0001)     ;
(PID.TID 0000.0001) dumpInitAndLast= /* write out Initial & Last iter. model state */
(PID.TID 0000.0001)                   T
(PID.TID 0000.0001)     ;
(PID.TID 0000.0001) snapshot_mdsio =   /* Model IO flag. */
(PID.TID 0000.0001)                   F
(PID.TID 0000.0001)     ;
(PID.TID 0000.0001) snapshot_mnc =   /* Model IO flag. */
(PID.TID 0000.0001)                   T
(PID.TID 0000.0001)     ;
(PID.TID 0000.0001) monitorFreq =   /* Monitor output interval ( s ). */
(PID.TID 0000.0001)                 1.200000000000000E+03
(PID.TID 0000.0001)     ;
(PID.TID 0000.0001) monitorSelect = /* select group of variables to monitor */
(PID.TID 0000.0001)                       2
(PID.TID 0000.0001)     ;
(PID.TID 0000.0001) monitor_stdio =   /* Model IO flag. */
(PID.TID 0000.0001)                   T
(PID.TID 0000.0001)     ;
(PID.TID 0000.0001) monitor_mnc =   /* Model IO flag. */
(PID.TID 0000.0001)                   F
(PID.TID 0000.0001)     ;
(PID.TID 0000.0001) externForcingPeriod =   /* forcing period (s) */
(PID.TID 0000.0001)                 0.000000000000000E+00
(PID.TID 0000.0001)     ;
(PID.TID 0000.0001) externForcingCycle =   /* period of the cyle (s). */
(PID.TID 0000.0001)                 0.000000000000000E+00
(PID.TID 0000.0001)     ;
(PID.TID 0000.0001) tauThetaClimRelax =   /* relaxation time scale (s) */
(PID.TID 0000.0001)                 0.000000000000000E+00
(PID.TID 0000.0001)     ;
(PID.TID 0000.0001) tauSaltClimRelax =   /* relaxation time scale (s) */
(PID.TID 0000.0001)                 0.000000000000000E+00
(PID.TID 0000.0001)     ;
(PID.TID 0000.0001) latBandClimRelax =   /* max. Lat. where relaxation */
(PID.TID 0000.0001)                 7.800000000000000E+04
(PID.TID 0000.0001)     ;
(PID.TID 0000.0001) //
(PID.TID 0000.0001) // Gridding paramters ( PARM04 in namelist )
(PID.TID 0000.0001) //
(PID.TID 0000.0001) usingCartesianGrid = /* Cartesian coordinates flag ( True/False ) */
(PID.TID 0000.0001)                   T
(PID.TID 0000.0001)     ;
(PID.TID 0000.0001) usingCylindricalGrid = /* Cylindrical coordinates flag ( True/False ) */
(PID.TID 0000.0001)                   F
(PID.TID 0000.0001)     ;
(PID.TID 0000.0001) usingSphericalPolarGrid = /* Spherical coordinates flag ( True/False ) */
(PID.TID 0000.0001)                   F
(PID.TID 0000.0001)     ;
(PID.TID 0000.0001) usingCurvilinearGrid = /* Curvilinear coordinates flag ( True/False ) */
(PID.TID 0000.0001)                   F
(PID.TID 0000.0001)     ;
(PID.TID 0000.0001) selectSigmaCoord = /* Hybrid-Sigma Vert. Coordinate option */
(PID.TID 0000.0001)                       0
(PID.TID 0000.0001)     ;
(PID.TID 0000.0001) Ro_SeaLevel = /* r(1) ( units of r ==  m ) */
(PID.TID 0000.0001)                 0.000000000000000E+00
(PID.TID 0000.0001)     ;
(PID.TID 0000.0001) rSigmaBnd = /* r/sigma transition ( units of r ==  m ) */
(PID.TID 0000.0001)                 1.234567000000000E+05
(PID.TID 0000.0001)     ;
(PID.TID 0000.0001) rkSign =   /* index orientation relative to vertical coordinate */
(PID.TID 0000.0001)                -1.000000000000000E+00
(PID.TID 0000.0001)     ;
(PID.TID 0000.0001) gravitySign = /* gravity orientation relative to vertical coordinate */
(PID.TID 0000.0001)                -1.000000000000000E+00
(PID.TID 0000.0001)     ;
(PID.TID 0000.0001) mass2rUnit = /* convert mass per unit area [kg/m2] to r-units [m] */
(PID.TID 0000.0001)                 9.661835748792270E-04
(PID.TID 0000.0001)     ;
(PID.TID 0000.0001) rUnit2mass = /* convert r-units [m] to mass per unit area [kg/m2] */
(PID.TID 0000.0001)                 1.035000000000000E+03
(PID.TID 0000.0001)     ;
(PID.TID 0000.0001) drC =   /* C spacing ( units of r ) */
(PID.TID 0000.0001)                 2.500000000000000E+00,      /* K =  1 */
(PID.TID 0000.0001)    39 @  5.000000000000000E+00              /* K =  2: 40 */
(PID.TID 0000.0001)     ;
(PID.TID 0000.0001) drF =   /* W spacing ( units of r ) */
(PID.TID 0000.0001)    40 @  5.000000000000000E+00              /* K =  1: 40 */
(PID.TID 0000.0001)     ;
(PID.TID 0000.0001) delX = /* U spacing ( m - cartesian, degrees - spherical ) */
(PID.TID 0000.0001)    50 @  1.000000000000000E+03              /* I =  1: 50 */
(PID.TID 0000.0001)     ;
(PID.TID 0000.0001) delY = /* V spacing ( m - cartesian, degrees - spherical ) */
(PID.TID 0000.0001)    26 @  1.000000000000000E+03              /* J =  1: 26 */
(PID.TID 0000.0001)     ;
(PID.TID 0000.0001) xgOrigin = /* X-axis origin of West  edge (cartesian: m, lat-lon: deg.) */
(PID.TID 0000.0001)                 0.000000000000000E+00
(PID.TID 0000.0001)     ;
(PID.TID 0000.0001) ygOrigin = /* Y-axis origin of South edge (cartesian: m, lat-lon: deg.) */
(PID.TID 0000.0001)                 0.000000000000000E+00
(PID.TID 0000.0001)     ;
(PID.TID 0000.0001) rSphere =  /* Radius ( ignored - cartesian, m - spherical ) */
(PID.TID 0000.0001)                 6.370000000000000E+06
(PID.TID 0000.0001)     ;
(PID.TID 0000.0001) deepAtmosphere = /* Deep/Shallow Atmosphere flag (True/False) */
(PID.TID 0000.0001)                   F
(PID.TID 0000.0001)     ;
(PID.TID 0000.0001) xC =  /* xC(:,1,:,1) : P-point X coord ( deg. or m if cartesian) */
(PID.TID 0000.0001)                 5.000000000000000E+02,      /* I =  1 */
(PID.TID 0000.0001)                 1.500000000000000E+03,      /* I =  2 */
(PID.TID 0000.0001)                 2.500000000000000E+03,      /* I =  3 */
(PID.TID 0000.0001)                 3.500000000000000E+03,      /* I =  4 */
(PID.TID 0000.0001)                 4.500000000000000E+03,      /* I =  5 */
(PID.TID 0000.0001)                 5.500000000000000E+03,      /* I =  6 */
(PID.TID 0000.0001)                 6.500000000000000E+03,      /* I =  7 */
(PID.TID 0000.0001)                 7.500000000000000E+03,      /* I =  8 */
(PID.TID 0000.0001)                 8.500000000000000E+03,      /* I =  9 */
(PID.TID 0000.0001)                 9.500000000000000E+03,      /* I = 10 */
(PID.TID 0000.0001)                 1.050000000000000E+04,      /* I = 11 */
(PID.TID 0000.0001)                 1.150000000000000E+04,      /* I = 12 */
(PID.TID 0000.0001)                 1.250000000000000E+04,      /* I = 13 */
(PID.TID 0000.0001)                 1.350000000000000E+04,      /* I = 14 */
(PID.TID 0000.0001)                 1.450000000000000E+04,      /* I = 15 */
(PID.TID 0000.0001)                 1.550000000000000E+04,      /* I = 16 */
(PID.TID 0000.0001)                 1.650000000000000E+04,      /* I = 17 */
(PID.TID 0000.0001)                 1.750000000000000E+04,      /* I = 18 */
(PID.TID 0000.0001)                 1.850000000000000E+04,      /* I = 19 */
(PID.TID 0000.0001)                 1.950000000000000E+04,      /* I = 20 */
(PID.TID 0000.0001)                 2.050000000000000E+04,      /* I = 21 */
(PID.TID 0000.0001)                 2.150000000000000E+04,      /* I = 22 */
(PID.TID 0000.0001)                 2.250000000000000E+04,      /* I = 23 */
(PID.TID 0000.0001)                 2.350000000000000E+04,      /* I = 24 */
(PID.TID 0000.0001)                 2.450000000000000E+04,      /* I = 25 */
(PID.TID 0000.0001)                 2.550000000000000E+04,      /* I = 26 */
(PID.TID 0000.0001)                 2.650000000000000E+04,      /* I = 27 */
(PID.TID 0000.0001)                 2.750000000000000E+04,      /* I = 28 */
(PID.TID 0000.0001)                 2.850000000000000E+04,      /* I = 29 */
(PID.TID 0000.0001)                 2.950000000000000E+04,      /* I = 30 */
(PID.TID 0000.0001)                 3.050000000000000E+04,      /* I = 31 */
(PID.TID 0000.0001)                 3.150000000000000E+04,      /* I = 32 */
(PID.TID 0000.0001)                 3.250000000000000E+04,      /* I = 33 */
(PID.TID 0000.0001)                 3.350000000000000E+04,      /* I = 34 */
(PID.TID 0000.0001)                 3.450000000000000E+04,      /* I = 35 */
(PID.TID 0000.0001)                 3.550000000000000E+04,      /* I = 36 */
(PID.TID 0000.0001)                 3.650000000000000E+04,      /* I = 37 */
(PID.TID 0000.0001)                 3.750000000000000E+04,      /* I = 38 */
(PID.TID 0000.0001)                 3.850000000000000E+04,      /* I = 39 */
(PID.TID 0000.0001)                 3.950000000000000E+04,      /* I = 40 */
(PID.TID 0000.0001)                 4.050000000000000E+04,      /* I = 41 */
(PID.TID 0000.0001)                 4.150000000000000E+04,      /* I = 42 */
(PID.TID 0000.0001)                 4.250000000000000E+04,      /* I = 43 */
(PID.TID 0000.0001)                 4.350000000000000E+04,      /* I = 44 */
(PID.TID 0000.0001)                 4.450000000000000E+04,      /* I = 45 */
(PID.TID 0000.0001)                 4.550000000000000E+04,      /* I = 46 */
(PID.TID 0000.0001)                 4.650000000000000E+04,      /* I = 47 */
(PID.TID 0000.0001)                 4.750000000000000E+04,      /* I = 48 */
(PID.TID 0000.0001)                 4.850000000000000E+04,      /* I = 49 */
(PID.TID 0000.0001)                 4.950000000000000E+04       /* I = 50 */
(PID.TID 0000.0001)     ;
(PID.TID 0000.0001) yC =  /* yC(1,:,1,:) : P-point Y coord ( deg. or m if cartesian) */
(PID.TID 0000.0001)                 5.000000000000000E+02,      /* J =  1 */
(PID.TID 0000.0001)                 1.500000000000000E+03,      /* J =  2 */
(PID.TID 0000.0001)                 2.500000000000000E+03,      /* J =  3 */
(PID.TID 0000.0001)                 3.500000000000000E+03,      /* J =  4 */
(PID.TID 0000.0001)                 4.500000000000000E+03,      /* J =  5 */
(PID.TID 0000.0001)                 5.500000000000000E+03,      /* J =  6 */
(PID.TID 0000.0001)                 6.500000000000000E+03,      /* J =  7 */
(PID.TID 0000.0001)                 7.500000000000000E+03,      /* J =  8 */
(PID.TID 0000.0001)                 8.500000000000000E+03,      /* J =  9 */
(PID.TID 0000.0001)                 9.500000000000000E+03,      /* J = 10 */
(PID.TID 0000.0001)                 1.050000000000000E+04,      /* J = 11 */
(PID.TID 0000.0001)                 1.150000000000000E+04,      /* J = 12 */
(PID.TID 0000.0001)                 1.250000000000000E+04,      /* J = 13 */
(PID.TID 0000.0001)                 1.350000000000000E+04,      /* J = 14 */
(PID.TID 0000.0001)                 1.450000000000000E+04,      /* J = 15 */
(PID.TID 0000.0001)                 1.550000000000000E+04,      /* J = 16 */
(PID.TID 0000.0001)                 1.650000000000000E+04,      /* J = 17 */
(PID.TID 0000.0001)                 1.750000000000000E+04,      /* J = 18 */
(PID.TID 0000.0001)                 1.850000000000000E+04,      /* J = 19 */
(PID.TID 0000.0001)                 1.950000000000000E+04,      /* J = 20 */
(PID.TID 0000.0001)                 2.050000000000000E+04,      /* J = 21 */
(PID.TID 0000.0001)                 2.150000000000000E+04,      /* J = 22 */
(PID.TID 0000.0001)                 2.250000000000000E+04,      /* J = 23 */
(PID.TID 0000.0001)                 2.350000000000000E+04,      /* J = 24 */
(PID.TID 0000.0001)                 2.450000000000000E+04,      /* J = 25 */
(PID.TID 0000.0001)                 2.550000000000000E+04       /* J = 26 */
(PID.TID 0000.0001)     ;
(PID.TID 0000.0001) rcoord = /* P-point R coordinate (  units of r ) */
(PID.TID 0000.0001)                -2.500000000000000E+00,      /* K =  1 */
(PID.TID 0000.0001)                -7.500000000000000E+00,      /* K =  2 */
(PID.TID 0000.0001)                -1.250000000000000E+01,      /* K =  3 */
(PID.TID 0000.0001)                -1.750000000000000E+01,      /* K =  4 */
(PID.TID 0000.0001)                -2.250000000000000E+01,      /* K =  5 */
(PID.TID 0000.0001)                -2.750000000000000E+01,      /* K =  6 */
(PID.TID 0000.0001)                -3.250000000000000E+01,      /* K =  7 */
(PID.TID 0000.0001)                -3.750000000000000E+01,      /* K =  8 */
(PID.TID 0000.0001)                -4.250000000000000E+01,      /* K =  9 */
(PID.TID 0000.0001)                -4.750000000000000E+01,      /* K = 10 */
(PID.TID 0000.0001)                -5.250000000000000E+01,      /* K = 11 */
(PID.TID 0000.0001)                -5.750000000000000E+01,      /* K = 12 */
(PID.TID 0000.0001)                -6.250000000000000E+01,      /* K = 13 */
(PID.TID 0000.0001)                -6.750000000000000E+01,      /* K = 14 */
(PID.TID 0000.0001)                -7.250000000000000E+01,      /* K = 15 */
(PID.TID 0000.0001)                -7.750000000000000E+01,      /* K = 16 */
(PID.TID 0000.0001)                -8.250000000000000E+01,      /* K = 17 */
(PID.TID 0000.0001)                -8.750000000000000E+01,      /* K = 18 */
(PID.TID 0000.0001)                -9.250000000000000E+01,      /* K = 19 */
(PID.TID 0000.0001)                -9.750000000000000E+01,      /* K = 20 */
(PID.TID 0000.0001)                -1.025000000000000E+02,      /* K = 21 */
(PID.TID 0000.0001)                -1.075000000000000E+02,      /* K = 22 */
(PID.TID 0000.0001)                -1.125000000000000E+02,      /* K = 23 */
(PID.TID 0000.0001)                -1.175000000000000E+02,      /* K = 24 */
(PID.TID 0000.0001)                -1.225000000000000E+02,      /* K = 25 */
(PID.TID 0000.0001)                -1.275000000000000E+02,      /* K = 26 */
(PID.TID 0000.0001)                -1.325000000000000E+02,      /* K = 27 */
(PID.TID 0000.0001)                -1.375000000000000E+02,      /* K = 28 */
(PID.TID 0000.0001)                -1.425000000000000E+02,      /* K = 29 */
(PID.TID 0000.0001)                -1.475000000000000E+02,      /* K = 30 */
(PID.TID 0000.0001)                -1.525000000000000E+02,      /* K = 31 */
(PID.TID 0000.0001)                -1.575000000000000E+02,      /* K = 32 */
(PID.TID 0000.0001)                -1.625000000000000E+02,      /* K = 33 */
(PID.TID 0000.0001)                -1.675000000000000E+02,      /* K = 34 */
(PID.TID 0000.0001)                -1.725000000000000E+02,      /* K = 35 */
(PID.TID 0000.0001)                -1.775000000000000E+02,      /* K = 36 */
(PID.TID 0000.0001)                -1.825000000000000E+02,      /* K = 37 */
(PID.TID 0000.0001)                -1.875000000000000E+02,      /* K = 38 */
(PID.TID 0000.0001)                -1.925000000000000E+02,      /* K = 39 */
(PID.TID 0000.0001)                -1.975000000000000E+02       /* K = 40 */
(PID.TID 0000.0001)     ;
(PID.TID 0000.0001) rF =   /* W-Interf. R coordinate (  units of r ) */
(PID.TID 0000.0001)                 0.000000000000000E+00,      /* K =  1 */
(PID.TID 0000.0001)                -5.000000000000000E+00,      /* K =  2 */
(PID.TID 0000.0001)                -1.000000000000000E+01,      /* K =  3 */
(PID.TID 0000.0001)                -1.500000000000000E+01,      /* K =  4 */
(PID.TID 0000.0001)                -2.000000000000000E+01,      /* K =  5 */
(PID.TID 0000.0001)                -2.500000000000000E+01,      /* K =  6 */
(PID.TID 0000.0001)                -3.000000000000000E+01,      /* K =  7 */
(PID.TID 0000.0001)                -3.500000000000000E+01,      /* K =  8 */
(PID.TID 0000.0001)                -4.000000000000000E+01,      /* K =  9 */
(PID.TID 0000.0001)                -4.500000000000000E+01,      /* K = 10 */
(PID.TID 0000.0001)                -5.000000000000000E+01,      /* K = 11 */
(PID.TID 0000.0001)                -5.500000000000000E+01,      /* K = 12 */
(PID.TID 0000.0001)                -6.000000000000000E+01,      /* K = 13 */
(PID.TID 0000.0001)                -6.500000000000000E+01,      /* K = 14 */
(PID.TID 0000.0001)                -7.000000000000000E+01,      /* K = 15 */
(PID.TID 0000.0001)                -7.500000000000000E+01,      /* K = 16 */
(PID.TID 0000.0001)                -8.000000000000000E+01,      /* K = 17 */
(PID.TID 0000.0001)                -8.500000000000000E+01,      /* K = 18 */
(PID.TID 0000.0001)                -9.000000000000000E+01,      /* K = 19 */
(PID.TID 0000.0001)                -9.500000000000000E+01,      /* K = 20 */
(PID.TID 0000.0001)                -1.000000000000000E+02,      /* K = 21 */
(PID.TID 0000.0001)                -1.050000000000000E+02,      /* K = 22 */
(PID.TID 0000.0001)                -1.100000000000000E+02,      /* K = 23 */
(PID.TID 0000.0001)                -1.150000000000000E+02,      /* K = 24 */
(PID.TID 0000.0001)                -1.200000000000000E+02,      /* K = 25 */
(PID.TID 0000.0001)                -1.250000000000000E+02,      /* K = 26 */
(PID.TID 0000.0001)                -1.300000000000000E+02,      /* K = 27 */
(PID.TID 0000.0001)                -1.350000000000000E+02,      /* K = 28 */
(PID.TID 0000.0001)                -1.400000000000000E+02,      /* K = 29 */
(PID.TID 0000.0001)                -1.450000000000000E+02,      /* K = 30 */
(PID.TID 0000.0001)                -1.500000000000000E+02,      /* K = 31 */
(PID.TID 0000.0001)                -1.550000000000000E+02,      /* K = 32 */
(PID.TID 0000.0001)                -1.600000000000000E+02,      /* K = 33 */
(PID.TID 0000.0001)                -1.650000000000000E+02,      /* K = 34 */
(PID.TID 0000.0001)                -1.700000000000000E+02,      /* K = 35 */
(PID.TID 0000.0001)                -1.750000000000000E+02,      /* K = 36 */
(PID.TID 0000.0001)                -1.800000000000000E+02,      /* K = 37 */
(PID.TID 0000.0001)                -1.850000000000000E+02,      /* K = 38 */
(PID.TID 0000.0001)                -1.900000000000000E+02,      /* K = 39 */
(PID.TID 0000.0001)                -1.950000000000000E+02,      /* K = 40 */
(PID.TID 0000.0001)                -2.000000000000000E+02       /* K = 41 */
(PID.TID 0000.0001)     ;
(PID.TID 0000.0001) deepFacC = /* deep-model grid factor @ cell-Center (-) */
(PID.TID 0000.0001)    40 @  1.000000000000000E+00              /* K =  1: 40 */
(PID.TID 0000.0001)     ;
(PID.TID 0000.0001) deepFacF = /* deep-model grid factor @ W-Interface (-) */
(PID.TID 0000.0001)    41 @  1.000000000000000E+00              /* K =  1: 41 */
(PID.TID 0000.0001)     ;
(PID.TID 0000.0001) rVel2wUnit = /* convert units: rVel -> wSpeed (=1 if z-coord)*/
(PID.TID 0000.0001)    41 @  1.000000000000000E+00              /* K =  1: 41 */
(PID.TID 0000.0001)     ;
(PID.TID 0000.0001) wUnit2rVel = /* convert units: wSpeed -> rVel (=1 if z-coord)*/
(PID.TID 0000.0001)    41 @  1.000000000000000E+00              /* K =  1: 41 */
(PID.TID 0000.0001)     ;
(PID.TID 0000.0001) dBdrRef = /* Vertical grad. of reference buoyancy [(m/s/r)^2] */
(PID.TID 0000.0001)    40 @  0.000000000000000E+00              /* K =  1: 40 */
(PID.TID 0000.0001)     ;
(PID.TID 0000.0001) rotateGrid = /* use rotated grid ( True/False ) */
(PID.TID 0000.0001)                   F
(PID.TID 0000.0001)     ;
(PID.TID 0000.0001) phiEuler = /* Euler angle, rotation about original z-coordinate [rad] */
(PID.TID 0000.0001)                 0.000000000000000E+00
(PID.TID 0000.0001)     ;
(PID.TID 0000.0001) thetaEuler = /* Euler angle, rotation about new x-coordinate [rad] */
(PID.TID 0000.0001)                 0.000000000000000E+00
(PID.TID 0000.0001)     ;
(PID.TID 0000.0001) psiEuler = /* Euler angle, rotation about new z-coordinate [rad] */
(PID.TID 0000.0001)                 0.000000000000000E+00
(PID.TID 0000.0001)     ;
(PID.TID 0000.0001) dxF =  /* dxF(:,1,:,1) ( units: m ) */
(PID.TID 0000.0001)    50 @  1.000000000000000E+03              /* I =  1: 50 */
(PID.TID 0000.0001)     ;
(PID.TID 0000.0001) dxF =  /* dxF(1,:,1,:) ( units: m ) */
(PID.TID 0000.0001)    26 @  1.000000000000000E+03              /* J =  1: 26 */
(PID.TID 0000.0001)     ;
(PID.TID 0000.0001) dyF =  /* dyF(:,1,:,1) ( units: m ) */
(PID.TID 0000.0001)    50 @  1.000000000000000E+03              /* I =  1: 50 */
(PID.TID 0000.0001)     ;
(PID.TID 0000.0001) dyF =  /* dyF(1,:,1,:) ( units: m ) */
(PID.TID 0000.0001)    26 @  1.000000000000000E+03              /* J =  1: 26 */
(PID.TID 0000.0001)     ;
(PID.TID 0000.0001) dxG =  /* dxG(:,1,:,1) ( units: m ) */
(PID.TID 0000.0001)    50 @  1.000000000000000E+03              /* I =  1: 50 */
(PID.TID 0000.0001)     ;
(PID.TID 0000.0001) dxG =  /* dxG(1,:,1,:) ( units: m ) */
(PID.TID 0000.0001)    26 @  1.000000000000000E+03              /* J =  1: 26 */
(PID.TID 0000.0001)     ;
(PID.TID 0000.0001) dyG =  /* dyG(:,1,:,1) ( units: m ) */
(PID.TID 0000.0001)    50 @  1.000000000000000E+03              /* I =  1: 50 */
(PID.TID 0000.0001)     ;
(PID.TID 0000.0001) dyG =  /* dyG(1,:,1,:) ( units: m ) */
(PID.TID 0000.0001)    26 @  1.000000000000000E+03              /* J =  1: 26 */
(PID.TID 0000.0001)     ;
(PID.TID 0000.0001) dxC =  /* dxC(:,1,:,1) ( units: m ) */
(PID.TID 0000.0001)    50 @  1.000000000000000E+03              /* I =  1: 50 */
(PID.TID 0000.0001)     ;
(PID.TID 0000.0001) dxC =  /* dxC(1,:,1,:) ( units: m ) */
(PID.TID 0000.0001)    26 @  1.000000000000000E+03              /* J =  1: 26 */
(PID.TID 0000.0001)     ;
(PID.TID 0000.0001) dyC =  /* dyC(:,1,:,1) ( units: m ) */
(PID.TID 0000.0001)    50 @  1.000000000000000E+03              /* I =  1: 50 */
(PID.TID 0000.0001)     ;
(PID.TID 0000.0001) dyC =  /* dyC(1,:,1,:) ( units: m ) */
(PID.TID 0000.0001)    26 @  1.000000000000000E+03              /* J =  1: 26 */
(PID.TID 0000.0001)     ;
(PID.TID 0000.0001) dxV =  /* dxV(:,1,:,1) ( units: m ) */
(PID.TID 0000.0001)    50 @  1.000000000000000E+03              /* I =  1: 50 */
(PID.TID 0000.0001)     ;
(PID.TID 0000.0001) dxV =  /* dxV(1,:,1,:) ( units: m ) */
(PID.TID 0000.0001)    26 @  1.000000000000000E+03              /* J =  1: 26 */
(PID.TID 0000.0001)     ;
(PID.TID 0000.0001) dyU =  /* dyU(:,1,:,1) ( units: m ) */
(PID.TID 0000.0001)    50 @  1.000000000000000E+03              /* I =  1: 50 */
(PID.TID 0000.0001)     ;
(PID.TID 0000.0001) dyU =  /* dyU(1,:,1,:) ( units: m ) */
(PID.TID 0000.0001)    26 @  1.000000000000000E+03              /* J =  1: 26 */
(PID.TID 0000.0001)     ;
(PID.TID 0000.0001) rA  =  /* rA (:,1,:,1) ( units: m^2 ) */
(PID.TID 0000.0001)    50 @  1.000000000000000E+06              /* I =  1: 50 */
(PID.TID 0000.0001)     ;
(PID.TID 0000.0001) rA  =  /* rA (1,:,1,:) ( units: m^2 ) */
(PID.TID 0000.0001)    26 @  1.000000000000000E+06              /* J =  1: 26 */
(PID.TID 0000.0001)     ;
(PID.TID 0000.0001) rAw =  /* rAw(:,1,:,1) ( units: m^2 ) */
(PID.TID 0000.0001)    50 @  1.000000000000000E+06              /* I =  1: 50 */
(PID.TID 0000.0001)     ;
(PID.TID 0000.0001) rAw =  /* rAw(1,:,1,:) ( units: m^2 ) */
(PID.TID 0000.0001)    26 @  1.000000000000000E+06              /* J =  1: 26 */
(PID.TID 0000.0001)     ;
(PID.TID 0000.0001) rAs =  /* rAs(:,1,:,1) ( units: m^2 ) */
(PID.TID 0000.0001)    50 @  1.000000000000000E+06              /* I =  1: 50 */
(PID.TID 0000.0001)     ;
(PID.TID 0000.0001) rAs =  /* rAs(1,:,1,:) ( units: m^2 ) */
(PID.TID 0000.0001)    26 @  1.000000000000000E+06              /* J =  1: 26 */
(PID.TID 0000.0001)     ;
(PID.TID 0000.0001) globalArea = /* Integrated horizontal Area (m^2) */
(PID.TID 0000.0001)                 1.250000000000000E+09
(PID.TID 0000.0001)     ;
(PID.TID 0000.0001) // =======================================================
(PID.TID 0000.0001) // End of Model config. summary
(PID.TID 0000.0001) // =======================================================
(PID.TID 0000.0001) 
(PID.TID 0000.0001) == Packages configuration : Check & print summary ==
(PID.TID 0000.0001) 
(PID.TID 0000.0001) GAD_CHECK: #define ALLOW_GENERIC_ADVDIFF
(PID.TID 0000.0001) // =======================================================
(PID.TID 0000.0001) // CONFIG_CHECK : Normal End
(PID.TID 0000.0001) // =======================================================
(PID.TID 0000.0001) 
(PID.TID 0000.0001)  MDS_READ_META: opening file: pickup.0000000036.meta
(PID.TID 0000.0001)  nRecords = 243 ; filePrec =  64 ; fileIter =        36
(PID.TID 0000.0001)     nDims =   2 , dims:
(PID.TID 0000.0001)    1:  50   1  50
(PID.TID 0000.0001)    2:  26   1  26
(PID.TID 0000.0001)     nFlds =   9 , nFl3D =   6 , fields:
(PID.TID 0000.0001)  >Uvel    < >Vvel    < >Theta   < >Salt    < >GuNm1   < >GvNm1   < >EtaN    < >dEtaHdt < >EtaH    <
(PID.TID 0000.0001)   nTimRec =   1 , timeList:
(PID.TID 0000.0001)   4.320000000000E+04
(PID.TID 0000.0001) READ_MFLDS_3D_RL: read field: "Uvel    ", #   1 in fldList, rec=   1
(PID.TID 0000.0001)  MDS_READ_FIELD: opening global file: pickup.0000000036
(PID.TID 0000.0001) READ_MFLDS_3D_RL: read field: "Vvel    ", #   2 in fldList, rec=   2
(PID.TID 0000.0001)  MDS_READ_FIELD: opening global file: pickup.0000000036
(PID.TID 0000.0001) READ_MFLDS_3D_RL: read field: "Theta   ", #   3 in fldList, rec=   3
(PID.TID 0000.0001)  MDS_READ_FIELD: opening global file: pickup.0000000036
(PID.TID 0000.0001) READ_MFLDS_3D_RL: read field: "Salt    ", #   4 in fldList, rec=   4
(PID.TID 0000.0001)  MDS_READ_FIELD: opening global file: pickup.0000000036
(PID.TID 0000.0001) READ_MFLDS_3D_RL: read field: "GuNm1   ", #   5 in fldList, rec=   5
(PID.TID 0000.0001)  MDS_READ_FIELD: opening global file: pickup.0000000036
(PID.TID 0000.0001) READ_MFLDS_3D_RL: read field: "GvNm1   ", #   6 in fldList, rec=   6
(PID.TID 0000.0001)  MDS_READ_FIELD: opening global file: pickup.0000000036
(PID.TID 0000.0001) READ_MFLDS_3D_RL: read field: "EtaN    ", #   7 in fldList, rec= 241
(PID.TID 0000.0001)  MDS_READ_FIELD: opening global file: pickup.0000000036
(PID.TID 0000.0001) READ_MFLDS_CHECK: - normal end ; reset MFLDS file-name: pickup.0000000036
(PID.TID 0000.0001)  write diagnostics summary to file ioUnit:      6
Iter.Nb:        36 ; Time(s):  4.3200000000000E+04
------------------------------------------------------------------------
2D/3D diagnostics: Number of lists:     2
------------------------------------------------------------------------
listId=    1 ; file name: momDiag
 nFlds, nActive,       freq     &     phase        , nLev               
    5  |    5  |    864000.000000         0.000000 |  40
 levels:   1   2   3   4   5   6   7   8   9  10  11  12  13  14  15  16  17  18  19  20  21  22  23  24  25
 levels:  26  27  28  29  30  31  32  33  34  35  36  37  38  39  40
 diag# | name   |   ipt  |  iMate | kLev|   count |   mate.C|           
   142 |momKE   |      1 |      0 |  40 |       0 |
   143 |momHDiv |     41 |      0 |  40 |       0 |
   144 |momVort3|     81 |      0 |  40 |       0 |
   145 |Strain  |    121 |      0 |  40 |       0 |
   146 |Tension |    161 |      0 |  40 |       0 |
------------------------------------------------------------------------
listId=    2 ; file name: viscDiag
 nFlds, nActive,       freq     &     phase        , nLev               
   24  |   24  |    864000.000000         0.000000 |  40
 levels:   1   2   3   4   5   6   7   8   9  10  11  12  13  14  15  16  17  18  19  20  21  22  23  24  25
 levels:  26  27  28  29  30  31  32  33  34  35  36  37  38  39  40
 diag# | name   |   ipt  |  iMate | kLev|   count |   mate.C|           
   118 |VISCAHD |    201 |      0 |  40 |       0 |
   119 |VISCA4D |    241 |      0 |  40 |       0 |
   116 |VISCAHZ |    281 |      0 |  40 |       0 |
   117 |VISCA4Z |    321 |      0 |  40 |       0 |
   124 |VAHDMAX |    361 |      0 |  40 |       0 |
   125 |VA4DMAX |    401 |      0 |  40 |       0 |
   122 |VAHZMAX |    441 |      0 |  40 |       0 |
   123 |VA4ZMAX |    481 |      0 |  40 |       0 |
   128 |VAHDMIN |    521 |      0 |  40 |       0 |
   129 |VA4DMIN |    561 |      0 |  40 |       0 |
   126 |VAHZMIN |    601 |      0 |  40 |       0 |
   127 |VA4ZMIN |    641 |      0 |  40 |       0 |
   132 |VAHDLTH |    681 |      0 |  40 |       0 |
   133 |VA4DLTH |    721 |      0 |  40 |       0 |
   130 |VAHZLTH |    761 |      0 |  40 |       0 |
   131 |VA4ZLTH |    801 |      0 |  40 |       0 |
   136 |VAHDLTHD|    841 |      0 |  40 |       0 |
   137 |VA4DLTHD|    881 |      0 |  40 |       0 |
   134 |VAHZLTHD|    921 |      0 |  40 |       0 |
   135 |VA4ZLTHD|    961 |      0 |  40 |       0 |
   140 |VAHDSMAG|   1001 |      0 |  40 |       0 |
   141 |VA4DSMAG|   1041 |      0 |  40 |       0 |
   138 |VAHZSMAG|   1081 |      0 |  40 |       0 |
   139 |VA4ZSMAG|   1121 |      0 |  40 |       0 |
------------------------------------------------------------------------
Global & Regional Statistics diagnostics: Number of lists:     0
------------------------------------------------------------------------
(PID.TID 0000.0001) // =======================================================
(PID.TID 0000.0001) // Model current state
(PID.TID 0000.0001) // =======================================================
(PID.TID 0000.0001) 
(PID.TID 0000.0001) // =======================================================
(PID.TID 0000.0001) // Begin MONITOR dynamic field statistics
(PID.TID 0000.0001) // =======================================================
(PID.TID 0000.0001) %MON time_tsnumber                =                    36
(PID.TID 0000.0001) %MON time_secondsf                =   4.3200000000000E+04
(PID.TID 0000.0001) %MON dynstat_eta_max              =   4.9203497038625E-04
(PID.TID 0000.0001) %MON dynstat_eta_min              =  -4.7317414867720E-04
(PID.TID 0000.0001) %MON dynstat_eta_mean             =   8.6296349763870E-17
(PID.TID 0000.0001) %MON dynstat_eta_sd               =   3.6032393102179E-04
(PID.TID 0000.0001) %MON dynstat_eta_del2             =   2.3225221891283E-06
(PID.TID 0000.0001) %MON dynstat_uvel_max             =   5.4751418592090E-02
(PID.TID 0000.0001) %MON dynstat_uvel_min             =  -4.7199362218880E-02
(PID.TID 0000.0001) %MON dynstat_uvel_mean            =  -7.5675254665943E-06
(PID.TID 0000.0001) %MON dynstat_uvel_sd              =   6.1016938291240E-03
(PID.TID 0000.0001) %MON dynstat_uvel_del2            =   3.8975344841067E-05
(PID.TID 0000.0001) %MON dynstat_vvel_max             =   5.6046918150884E-02
(PID.TID 0000.0001) %MON dynstat_vvel_min             =  -5.4933021080310E-02
(PID.TID 0000.0001) %MON dynstat_vvel_mean            =   9.7029245015389E-10
(PID.TID 0000.0001) %MON dynstat_vvel_sd              =   9.4304240338762E-03
(PID.TID 0000.0001) %MON dynstat_vvel_del2            =   8.9401595343287E-05
(PID.TID 0000.0001) %MON dynstat_wvel_max             =   1.5736246365679E-03
(PID.TID 0000.0001) %MON dynstat_wvel_min             =  -1.3312745212694E-03
(PID.TID 0000.0001) %MON dynstat_wvel_mean            =   2.1161063562466E-20
(PID.TID 0000.0001) %MON dynstat_wvel_sd              =   2.4223309187731E-04
(PID.TID 0000.0001) %MON dynstat_wvel_del2            =   2.8382381375586E-06
(PID.TID 0000.0001) %MON dynstat_theta_max            =   1.7020389431342E+01
(PID.TID 0000.0001) %MON dynstat_theta_min            =   1.6979609682297E+01
(PID.TID 0000.0001) %MON dynstat_theta_mean           =   1.6999999918015E+01
(PID.TID 0000.0001) %MON dynstat_theta_sd             =   1.8293586125803E-02
(PID.TID 0000.0001) %MON dynstat_theta_del2           =   1.7421205851868E-05
(PID.TID 0000.0001) %MON dynstat_salt_max             =   1.7020387100726E+01
(PID.TID 0000.0001) %MON dynstat_salt_min             =   1.6979612985762E+01
(PID.TID 0000.0001) %MON dynstat_salt_mean            =   1.7000000006198E+01
(PID.TID 0000.0001) %MON dynstat_salt_sd              =   1.7218011876591E-02
(PID.TID 0000.0001) %MON dynstat_salt_del2            =   2.2637631284831E-05
(PID.TID 0000.0001) %MON advcfl_uvel_max              =   6.5701702310508E-02
(PID.TID 0000.0001) %MON advcfl_vvel_max              =   6.7256301781060E-02
(PID.TID 0000.0001) %MON advcfl_wvel_max              =   3.7766991277630E-01
(PID.TID 0000.0001) %MON advcfl_W_hf_max              =   3.7766991277630E-01
(PID.TID 0000.0001) %MON pe_b_mean                    =   3.1841625474231E-09
(PID.TID 0000.0001) %MON ke_max                       =   1.6254542773163E-03
(PID.TID 0000.0001) %MON ke_mean                      =   6.1303153206086E-05
(PID.TID 0000.0001) %MON ke_vol                       =   2.5000000000000E+11
(PID.TID 0000.0001) %MON vort_r_min                   =  -6.7485668907250E-05
(PID.TID 0000.0001) %MON vort_r_max                   =   8.8188324132296E-05
(PID.TID 0000.0001) %MON vort_a_mean                  =   7.2900000000000E-05
(PID.TID 0000.0001) %MON vort_a_sd                    =   1.3914727543680E-05
(PID.TID 0000.0001) %MON vort_p_mean                  =   7.7363265306123E-05
(PID.TID 0000.0001) %MON vort_p_sd                    =   3.4152843064091E-05
(PID.TID 0000.0001) %MON surfExpan_theta_mean         =  -5.3951191277894E-13
(PID.TID 0000.0001) %MON surfExpan_salt_mean          =   9.0038965020867E-14
(PID.TID 0000.0001) // =======================================================
(PID.TID 0000.0001) // End MONITOR dynamic field statistics
(PID.TID 0000.0001) // =======================================================
(PID.TID 0000.0001) SOLVE_FOR_PRESSURE: putPmEinXvector =    F
 cg2d: Sum(rhs),rhsMax =  -6.83897383169096E-14  5.22943500209389E-03
(PID.TID 0000.0001)                    cg2d_init_res =    7.31255961224746E-02
(PID.TID 0000.0001)                       cg2d_iters =    86
(PID.TID 0000.0001)                         cg2d_res =    6.39039859251866E-12
(PID.TID 0000.0001) // =======================================================
(PID.TID 0000.0001) // Begin MONITOR dynamic field statistics
(PID.TID 0000.0001) // =======================================================
(PID.TID 0000.0001) %MON time_tsnumber                =                    37
(PID.TID 0000.0001) %MON time_secondsf                =   4.4400000000000E+04
(PID.TID 0000.0001) %MON dynstat_eta_max              =   4.9273025312431E-04
(PID.TID 0000.0001) %MON dynstat_eta_min              =  -4.7194306184491E-04
(PID.TID 0000.0001) %MON dynstat_eta_mean             =   9.3830749392509E-17
(PID.TID 0000.0001) %MON dynstat_eta_sd               =   3.6027391104854E-04
(PID.TID 0000.0001) %MON dynstat_eta_del2             =   2.3197784200337E-06
(PID.TID 0000.0001) %MON dynstat_uvel_max             =   5.4586676774402E-02
(PID.TID 0000.0001) %MON dynstat_uvel_min             =  -4.6998354066221E-02
(PID.TID 0000.0001) %MON dynstat_uvel_mean            =  -7.5817554413978E-06
(PID.TID 0000.0001) %MON dynstat_uvel_sd              =   6.0352700026968E-03
(PID.TID 0000.0001) %MON dynstat_uvel_del2            =   3.8745326805894E-05
(PID.TID 0000.0001) %MON dynstat_vvel_max             =   5.5620652813917E-02
(PID.TID 0000.0001) %MON dynstat_vvel_min             =  -5.4724853048895E-02
(PID.TID 0000.0001) %MON dynstat_vvel_mean            =   1.0618561068783E-09
(PID.TID 0000.0001) %MON dynstat_vvel_sd              =   9.4671929414792E-03
(PID.TID 0000.0001) %MON dynstat_vvel_del2            =   8.9333823573370E-05
(PID.TID 0000.0001) %MON dynstat_wvel_max             =   1.5673115437733E-03
(PID.TID 0000.0001) %MON dynstat_wvel_min             =  -1.3199635925923E-03
(PID.TID 0000.0001) %MON dynstat_wvel_mean            =   1.7919117891336E-20
(PID.TID 0000.0001) %MON dynstat_wvel_sd              =   2.4183386806109E-04
(PID.TID 0000.0001) %MON dynstat_wvel_del2            =   2.8244760677364E-06
(PID.TID 0000.0001) %MON dynstat_theta_max            =   1.7020389428823E+01
(PID.TID 0000.0001) %MON dynstat_theta_min            =   1.6979609685196E+01
(PID.TID 0000.0001) %MON dynstat_theta_mean           =   1.6999999918018E+01
(PID.TID 0000.0001) %MON dynstat_theta_sd             =   1.8292470035876E-02
(PID.TID 0000.0001) %MON dynstat_theta_del2           =   1.7461486760884E-05
(PID.TID 0000.0001) %MON dynstat_salt_max             =   1.7020387100725E+01
(PID.TID 0000.0001) %MON dynstat_salt_min             =   1.6979612985764E+01
(PID.TID 0000.0001) %MON dynstat_salt_mean            =   1.7000000006198E+01
(PID.TID 0000.0001) %MON dynstat_salt_sd              =   1.7216427823154E-02
(PID.TID 0000.0001) %MON dynstat_salt_del2            =   2.2642714931869E-05
(PID.TID 0000.0001) %MON advcfl_uvel_max              =   6.5504012129282E-02
(PID.TID 0000.0001) %MON advcfl_vvel_max              =   6.6744783376700E-02
(PID.TID 0000.0001) %MON advcfl_wvel_max              =   3.7615477050559E-01
(PID.TID 0000.0001) %MON advcfl_W_hf_max              =   3.7615477050559E-01
(PID.TID 0000.0001) %MON pe_b_mean                    =   3.1832785613387E-09
(PID.TID 0000.0001) %MON ke_max                       =   1.5968508728673E-03
(PID.TID 0000.0001) %MON ke_mean                      =   6.1233586996007E-05
(PID.TID 0000.0001) %MON ke_vol                       =   2.5000000000000E+11
(PID.TID 0000.0001) %MON vort_r_min                   =  -6.7460994658678E-05
(PID.TID 0000.0001) %MON vort_r_max                   =   8.7647331052781E-05
(PID.TID 0000.0001) %MON vort_a_mean                  =   7.2900000000000E-05
(PID.TID 0000.0001) %MON vort_a_sd                    =   1.3897324939781E-05
(PID.TID 0000.0001) %MON vort_p_mean                  =   7.7363265306122E-05
(PID.TID 0000.0001) %MON vort_p_sd                    =   3.4138309850289E-05
(PID.TID 0000.0001) %MON surfExpan_theta_mean         =  -5.0580590858811E-13
(PID.TID 0000.0001) %MON surfExpan_salt_mean          =   8.5573075582879E-14
(PID.TID 0000.0001) // =======================================================
(PID.TID 0000.0001) // End MONITOR dynamic field statistics
(PID.TID 0000.0001) // =======================================================
 cg2d: Sum(rhs),rhsMax =  -8.08242361927114E-14  5.22195764907169E-03
(PID.TID 0000.0001)                    cg2d_init_res =    7.33035070139332E-02
(PID.TID 0000.0001)                       cg2d_iters =    86
(PID.TID 0000.0001)                         cg2d_res =    6.21037625294838E-12
(PID.TID 0000.0001) // =======================================================
(PID.TID 0000.0001) // Begin MONITOR dynamic field statistics
(PID.TID 0000.0001) // =======================================================
(PID.TID 0000.0001) %MON time_tsnumber                =                    38
(PID.TID 0000.0001) %MON time_secondsf                =   4.5600000000000E+04
(PID.TID 0000.0001) %MON dynstat_eta_max              =   4.9337957989497E-04
(PID.TID 0000.0001) %MON dynstat_eta_min              =  -4.7075868584186E-04
(PID.TID 0000.0001) %MON dynstat_eta_mean             =   1.0403804481030E-16
(PID.TID 0000.0001) %MON dynstat_eta_sd               =   3.6022003353033E-04
(PID.TID 0000.0001) %MON dynstat_eta_del2             =   2.3172721520997E-06
(PID.TID 0000.0001) %MON dynstat_uvel_max             =   5.4469329023235E-02
(PID.TID 0000.0001) %MON dynstat_uvel_min             =  -4.6848886454054E-02
(PID.TID 0000.0001) %MON dynstat_uvel_mean            =  -7.5973502276139E-06
(PID.TID 0000.0001) %MON dynstat_uvel_sd              =   5.9739165015071E-03
(PID.TID 0000.0001) %MON dynstat_uvel_del2            =   3.8525859829678E-05
(PID.TID 0000.0001) %MON dynstat_vvel_max             =   5.5179108614755E-02
(PID.TID 0000.0001) %MON dynstat_vvel_min             =  -5.4485305987954E-02
(PID.TID 0000.0001) %MON dynstat_vvel_mean            =   1.1605906399976E-09
(PID.TID 0000.0001) %MON dynstat_vvel_sd              =   9.5067024505934E-03
(PID.TID 0000.0001) %MON dynstat_vvel_del2            =   8.9254018383635E-05
(PID.TID 0000.0001) %MON dynstat_wvel_max             =   1.5601726655678E-03
(PID.TID 0000.0001) %MON dynstat_wvel_min             =  -1.3079088701322E-03
(PID.TID 0000.0001) %MON dynstat_wvel_mean            =  -2.8293344038951E-21
(PID.TID 0000.0001) %MON dynstat_wvel_sd              =   2.4169719035026E-04
(PID.TID 0000.0001) %MON dynstat_wvel_del2            =   2.8128026844398E-06
(PID.TID 0000.0001) %MON dynstat_theta_max            =   1.7020389425902E+01
(PID.TID 0000.0001) %MON dynstat_theta_min            =   1.6979609686770E+01
(PID.TID 0000.0001) %MON dynstat_theta_mean           =   1.6999999918021E+01
(PID.TID 0000.0001) %MON dynstat_theta_sd             =   1.8291352690090E-02
(PID.TID 0000.0001) %MON dynstat_theta_del2           =   1.7505867693712E-05
(PID.TID 0000.0001) %MON dynstat_salt_max             =   1.7020387100725E+01
(PID.TID 0000.0001) %MON dynstat_salt_min             =   1.6979612985765E+01
(PID.TID 0000.0001) %MON dynstat_salt_mean            =   1.7000000006197E+01
(PID.TID 0000.0001) %MON dynstat_salt_sd              =   1.7214823384225E-02
(PID.TID 0000.0001) %MON dynstat_salt_del2            =   2.2643849837768E-05
(PID.TID 0000.0001) %MON advcfl_uvel_max              =   6.5363194827882E-02
(PID.TID 0000.0001) %MON advcfl_vvel_max              =   6.6214930337706E-02
(PID.TID 0000.0001) %MON advcfl_wvel_max              =   3.7444143973627E-01
(PID.TID 0000.0001) %MON advcfl_W_hf_max              =   3.7444143973627E-01
(PID.TID 0000.0001) %MON pe_b_mean                    =   3.1823265394505E-09
(PID.TID 0000.0001) %MON ke_max                       =   1.5681218943733E-03
(PID.TID 0000.0001) %MON ke_mean                      =   6.1225015955732E-05
(PID.TID 0000.0001) %MON ke_vol                       =   2.5000000000000E+11
(PID.TID 0000.0001) %MON vort_r_min                   =  -6.7430731494903E-05
(PID.TID 0000.0001) %MON vort_r_max                   =   8.7117531416332E-05
(PID.TID 0000.0001) %MON vort_a_mean                  =   7.2900000000000E-05
(PID.TID 0000.0001) %MON vort_a_sd                    =   1.3877272703477E-05
(PID.TID 0000.0001) %MON vort_p_mean                  =   7.7363265306122E-05
(PID.TID 0000.0001) %MON vort_p_sd                    =   3.4120508287232E-05
(PID.TID 0000.0001) %MON surfExpan_theta_mean         =  -4.4127566799261E-13
(PID.TID 0000.0001) %MON surfExpan_salt_mean          =   8.1939300059286E-14
(PID.TID 0000.0001) // =======================================================
(PID.TID 0000.0001) // End MONITOR dynamic field statistics
(PID.TID 0000.0001) // =======================================================
 cg2d: Sum(rhs),rhsMax =  -9.59232693276135E-14  5.21221950619170E-03
(PID.TID 0000.0001)                    cg2d_init_res =    7.32749968849777E-02
(PID.TID 0000.0001)                       cg2d_iters =    86
(PID.TID 0000.0001)                         cg2d_res =    6.24243053712129E-12
(PID.TID 0000.0001) // =======================================================
(PID.TID 0000.0001) // Begin MONITOR dynamic field statistics
(PID.TID 0000.0001) // =======================================================
(PID.TID 0000.0001) %MON time_tsnumber                =                    39
(PID.TID 0000.0001) %MON time_secondsf                =   4.6800000000000E+04
(PID.TID 0000.0001) %MON dynstat_eta_max              =   4.9399930327013E-04
(PID.TID 0000.0001) %MON dynstat_eta_min              =  -4.6962229491666E-04
(PID.TID 0000.0001) %MON dynstat_eta_mean             =   9.9791213870049E-17
(PID.TID 0000.0001) %MON dynstat_eta_sd               =   3.6016268654098E-04
(PID.TID 0000.0001) %MON dynstat_eta_del2             =   2.3152413724657E-06
(PID.TID 0000.0001) %MON dynstat_uvel_max             =   5.4397114327709E-02
(PID.TID 0000.0001) %MON dynstat_uvel_min             =  -4.6747942360961E-02
(PID.TID 0000.0001) %MON dynstat_uvel_mean            =  -7.6145511086400E-06
(PID.TID 0000.0001) %MON dynstat_uvel_sd              =   5.9193520529717E-03
(PID.TID 0000.0001) %MON dynstat_uvel_del2            =   3.8315293694788E-05
(PID.TID 0000.0001) %MON dynstat_vvel_max             =   5.4718900297713E-02
(PID.TID 0000.0001) %MON dynstat_vvel_min             =  -5.4211327803136E-02
(PID.TID 0000.0001) %MON dynstat_vvel_mean            =   1.2542272251332E-09
(PID.TID 0000.0001) %MON dynstat_vvel_sd              =   9.5473242846842E-03
(PID.TID 0000.0001) %MON dynstat_vvel_del2            =   8.9154234639767E-05
(PID.TID 0000.0001) %MON dynstat_wvel_max             =   1.5519488701149E-03
(PID.TID 0000.0001) %MON dynstat_wvel_min             =  -1.2949735646126E-03
(PID.TID 0000.0001) %MON dynstat_wvel_mean            =  -2.3577786699126E-21
(PID.TID 0000.0001) %MON dynstat_wvel_sd              =   2.4175330800894E-04
(PID.TID 0000.0001) %MON dynstat_wvel_del2            =   2.8028080108831E-06
(PID.TID 0000.0001) %MON dynstat_theta_max            =   1.7020389422606E+01
(PID.TID 0000.0001) %MON dynstat_theta_min            =   1.6979609688469E+01
(PID.TID 0000.0001) %MON dynstat_theta_mean           =   1.6999999918024E+01
(PID.TID 0000.0001) %MON dynstat_theta_sd             =   1.8290233929810E-02
(PID.TID 0000.0001) %MON dynstat_theta_del2           =   1.7553870059128E-05
(PID.TID 0000.0001) %MON dynstat_salt_max             =   1.7020387100725E+01
(PID.TID 0000.0001) %MON dynstat_salt_min             =   1.6979612985765E+01
(PID.TID 0000.0001) %MON dynstat_salt_mean            =   1.7000000006197E+01
(PID.TID 0000.0001) %MON dynstat_salt_sd              =   1.7213232269275E-02
(PID.TID 0000.0001) %MON dynstat_salt_del2            =   2.2650187872694E-05
(PID.TID 0000.0001) %MON advcfl_uvel_max              =   6.5276537193251E-02
(PID.TID 0000.0001) %MON advcfl_vvel_max              =   6.5662680357256E-02
(PID.TID 0000.0001) %MON advcfl_wvel_max              =   3.7246772882757E-01
(PID.TID 0000.0001) %MON advcfl_W_hf_max              =   3.7246772882757E-01
(PID.TID 0000.0001) %MON pe_b_mean                    =   3.1813133680416E-09
(PID.TID 0000.0001) %MON ke_max                       =   1.5453378494125E-03
(PID.TID 0000.0001) %MON ke_mean                      =   6.1272065832727E-05
(PID.TID 0000.0001) %MON ke_vol                       =   2.5000000000000E+11
(PID.TID 0000.0001) %MON vort_r_min                   =  -6.7390744367276E-05
(PID.TID 0000.0001) %MON vort_r_max                   =   8.6594658120458E-05
(PID.TID 0000.0001) %MON vort_a_mean                  =   7.2900000000000E-05
(PID.TID 0000.0001) %MON vort_a_sd                    =   1.3853940205235E-05
(PID.TID 0000.0001) %MON vort_p_mean                  =   7.7363265306122E-05
(PID.TID 0000.0001) %MON vort_p_sd                    =   3.4099416625493E-05
(PID.TID 0000.0001) %MON surfExpan_theta_mean         =  -4.2678707233001E-13
(PID.TID 0000.0001) %MON surfExpan_salt_mean          =   7.3569368932347E-14
(PID.TID 0000.0001) // =======================================================
(PID.TID 0000.0001) // End MONITOR dynamic field statistics
(PID.TID 0000.0001) // =======================================================
 cg2d: Sum(rhs),rhsMax =  -7.37188088351104E-14  5.19989460109372E-03
(PID.TID 0000.0001)                    cg2d_init_res =    7.32696830977073E-02
(PID.TID 0000.0001)                       cg2d_iters =    86
(PID.TID 0000.0001)                         cg2d_res =    6.42900459842626E-12
(PID.TID 0000.0001) // =======================================================
(PID.TID 0000.0001) // Begin MONITOR dynamic field statistics
(PID.TID 0000.0001) // =======================================================
(PID.TID 0000.0001) %MON time_tsnumber                =                    40
(PID.TID 0000.0001) %MON time_secondsf                =   4.8000000000000E+04
(PID.TID 0000.0001) %MON dynstat_eta_max              =   4.9457914555045E-04
(PID.TID 0000.0001) %MON dynstat_eta_min              =  -4.6924412968705E-04
(PID.TID 0000.0001) %MON dynstat_eta_mean             =   7.3937699198723E-17
(PID.TID 0000.0001) %MON dynstat_eta_sd               =   3.6010180564843E-04
(PID.TID 0000.0001) %MON dynstat_eta_del2             =   2.3136389769500E-06
(PID.TID 0000.0001) %MON dynstat_uvel_max             =   5.4371720768325E-02
(PID.TID 0000.0001) %MON dynstat_uvel_min             =  -4.6696501822701E-02
(PID.TID 0000.0001) %MON dynstat_uvel_mean            =  -7.6335730263268E-06
(PID.TID 0000.0001) %MON dynstat_uvel_sd              =   5.8736323344937E-03
(PID.TID 0000.0001) %MON dynstat_uvel_del2            =   3.8116157339215E-05
(PID.TID 0000.0001) %MON dynstat_vvel_max             =   5.4243051398341E-02
(PID.TID 0000.0001) %MON dynstat_vvel_min             =  -5.3904885918649E-02
(PID.TID 0000.0001) %MON dynstat_vvel_mean            =   1.3495704768458E-09
(PID.TID 0000.0001) %MON dynstat_vvel_sd              =   9.5878813053188E-03
(PID.TID 0000.0001) %MON dynstat_vvel_del2            =   8.9034457254129E-05
(PID.TID 0000.0001) %MON dynstat_wvel_max             =   1.5426850882167E-03
(PID.TID 0000.0001) %MON dynstat_wvel_min             =  -1.2812348273022E-03
(PID.TID 0000.0001) %MON dynstat_wvel_mean            =  -1.4618227753458E-20
(PID.TID 0000.0001) %MON dynstat_wvel_sd              =   2.4195531102697E-04
(PID.TID 0000.0001) %MON dynstat_wvel_del2            =   2.7945106923873E-06
(PID.TID 0000.0001) %MON dynstat_theta_max            =   1.7020389418962E+01
(PID.TID 0000.0001) %MON dynstat_theta_min            =   1.6979609690074E+01
(PID.TID 0000.0001) %MON dynstat_theta_mean           =   1.6999999918026E+01
(PID.TID 0000.0001) %MON dynstat_theta_sd             =   1.8289112616726E-02
(PID.TID 0000.0001) %MON dynstat_theta_del2           =   1.7605481855137E-05
(PID.TID 0000.0001) %MON dynstat_salt_max             =   1.7020387100725E+01
(PID.TID 0000.0001) %MON dynstat_salt_min             =   1.6979612985765E+01
(PID.TID 0000.0001) %MON dynstat_salt_mean            =   1.7000000006196E+01
(PID.TID 0000.0001) %MON dynstat_salt_sd              =   1.7211634553513E-02
(PID.TID 0000.0001) %MON dynstat_salt_del2            =   2.2654561999249E-05
(PID.TID 0000.0001) %MON advcfl_uvel_max              =   6.5246064921990E-02
(PID.TID 0000.0001) %MON advcfl_vvel_max              =   6.5091661678010E-02
(PID.TID 0000.0001) %MON advcfl_wvel_max              =   3.7024442117201E-01
(PID.TID 0000.0001) %MON advcfl_W_hf_max              =   3.7024442117201E-01
(PID.TID 0000.0001) %MON pe_b_mean                    =   3.1802379383266E-09
(PID.TID 0000.0001) %MON ke_max                       =   1.5230759205730E-03
(PID.TID 0000.0001) %MON ke_mean                      =   6.1374992140067E-05
(PID.TID 0000.0001) %MON ke_vol                       =   2.5000000000000E+11
(PID.TID 0000.0001) %MON vort_r_min                   =  -6.7340329050535E-05
(PID.TID 0000.0001) %MON vort_r_max                   =   8.6083862087335E-05
(PID.TID 0000.0001) %MON vort_a_mean                  =   7.2900000000000E-05
(PID.TID 0000.0001) %MON vort_a_sd                    =   1.3827715829289E-05
(PID.TID 0000.0001) %MON vort_p_mean                  =   7.7363265306123E-05
(PID.TID 0000.0001) %MON vort_p_sd                    =   3.4075506506791E-05
(PID.TID 0000.0001) %MON surfExpan_theta_mean         =  -4.0104551898965E-13
(PID.TID 0000.0001) %MON surfExpan_salt_mean          =   6.4774019150882E-14
(PID.TID 0000.0001) // =======================================================
(PID.TID 0000.0001) // End MONITOR dynamic field statistics
(PID.TID 0000.0001) // =======================================================
 cg2d: Sum(rhs),rhsMax =  -6.39488462184090E-14  5.18546556859847E-03
(PID.TID 0000.0001)                    cg2d_init_res =    7.31021670272649E-02
(PID.TID 0000.0001)                       cg2d_iters =    86
(PID.TID 0000.0001)                         cg2d_res =    6.87913628830070E-12
(PID.TID 0000.0001) // =======================================================
(PID.TID 0000.0001) // Begin MONITOR dynamic field statistics
(PID.TID 0000.0001) // =======================================================
(PID.TID 0000.0001) %MON time_tsnumber                =                    41
(PID.TID 0000.0001) %MON time_secondsf                =   4.9200000000000E+04
(PID.TID 0000.0001) %MON dynstat_eta_max              =   4.9511580875397E-04
(PID.TID 0000.0001) %MON dynstat_eta_min              =  -4.6924601153535E-04
(PID.TID 0000.0001) %MON dynstat_eta_mean             =   7.9050660133362E-17
(PID.TID 0000.0001) %MON dynstat_eta_sd               =   3.6003753906571E-04
(PID.TID 0000.0001) %MON dynstat_eta_del2             =   2.3125332213327E-06
(PID.TID 0000.0001) %MON dynstat_uvel_max             =   5.4394553982843E-02
(PID.TID 0000.0001) %MON dynstat_uvel_min             =  -4.6695035765648E-02
(PID.TID 0000.0001) %MON dynstat_uvel_mean            =  -7.6546158036345E-06
(PID.TID 0000.0001) %MON dynstat_uvel_sd              =   5.8388629835272E-03
(PID.TID 0000.0001) %MON dynstat_uvel_del2            =   3.7930652439560E-05
(PID.TID 0000.0001) %MON dynstat_vvel_max             =   5.3754482784805E-02
(PID.TID 0000.0001) %MON dynstat_vvel_min             =  -5.3568036932527E-02
(PID.TID 0000.0001) %MON dynstat_vvel_mean            =   1.4446687530028E-09
(PID.TID 0000.0001) %MON dynstat_vvel_sd              =   9.6271587797679E-03
(PID.TID 0000.0001) %MON dynstat_vvel_del2            =   8.8894805298644E-05
(PID.TID 0000.0001) %MON dynstat_wvel_max             =   1.5324187070790E-03
(PID.TID 0000.0001) %MON dynstat_wvel_min             =  -1.2668597231406E-03
(PID.TID 0000.0001) %MON dynstat_wvel_mean            =   3.3008901378776E-21
(PID.TID 0000.0001) %MON dynstat_wvel_sd              =   2.4225201276789E-04
(PID.TID 0000.0001) %MON dynstat_wvel_del2            =   2.7878855841008E-06
(PID.TID 0000.0001) %MON dynstat_theta_max            =   1.7020389414995E+01
(PID.TID 0000.0001) %MON dynstat_theta_min            =   1.6979609691409E+01
(PID.TID 0000.0001) %MON dynstat_theta_mean           =   1.6999999918028E+01
(PID.TID 0000.0001) %MON dynstat_theta_sd             =   1.8287986168159E-02
(PID.TID 0000.0001) %MON dynstat_theta_del2           =   1.7660105333949E-05
(PID.TID 0000.0001) %MON dynstat_salt_max             =   1.7020387100725E+01
(PID.TID 0000.0001) %MON dynstat_salt_min             =   1.6979612985765E+01
(PID.TID 0000.0001) %MON dynstat_salt_mean            =   1.7000000006196E+01
(PID.TID 0000.0001) %MON dynstat_salt_sd              =   1.7210028791607E-02
(PID.TID 0000.0001) %MON dynstat_salt_del2            =   2.2656561863620E-05
(PID.TID 0000.0001) %MON advcfl_uvel_max              =   6.5273464779412E-02
(PID.TID 0000.0001) %MON advcfl_vvel_max              =   6.4505379341766E-02
(PID.TID 0000.0001) %MON advcfl_wvel_max              =   3.6778048969895E-01
(PID.TID 0000.0001) %MON advcfl_W_hf_max              =   3.6778048969895E-01
(PID.TID 0000.0001) %MON pe_b_mean                    =   3.1791028993824E-09
(PID.TID 0000.0001) %MON ke_max                       =   1.5004522539468E-03
(PID.TID 0000.0001) %MON ke_mean                      =   6.1533639128789E-05
(PID.TID 0000.0001) %MON ke_vol                       =   2.5000000000000E+11
(PID.TID 0000.0001) %MON vort_r_min                   =  -6.7278901618522E-05
(PID.TID 0000.0001) %MON vort_r_max                   =   8.5590004545943E-05
(PID.TID 0000.0001) %MON vort_a_mean                  =   7.2900000000000E-05
(PID.TID 0000.0001) %MON vort_a_sd                    =   1.3799013466509E-05
(PID.TID 0000.0001) %MON vort_p_mean                  =   7.7363265306122E-05
(PID.TID 0000.0001) %MON vort_p_sd                    =   3.4049305360877E-05
(PID.TID 0000.0001) %MON surfExpan_theta_mean         =  -3.8157437651183E-13
(PID.TID 0000.0001) %MON surfExpan_salt_mean          =   5.3172851288519E-14
(PID.TID 0000.0001) // =======================================================
(PID.TID 0000.0001) // End MONITOR dynamic field statistics
(PID.TID 0000.0001) // =======================================================
 cg2d: Sum(rhs),rhsMax =  -7.81597009336110E-14  5.16925248026251E-03
(PID.TID 0000.0001)                    cg2d_init_res =    7.28423262541834E-02
(PID.TID 0000.0001)                       cg2d_iters =    86
(PID.TID 0000.0001)                         cg2d_res =    6.99621381202391E-12
(PID.TID 0000.0001) // =======================================================
(PID.TID 0000.0001) // Begin MONITOR dynamic field statistics
(PID.TID 0000.0001) // =======================================================
(PID.TID 0000.0001) %MON time_tsnumber                =                    42
(PID.TID 0000.0001) %MON time_secondsf                =   5.0400000000000E+04
(PID.TID 0000.0001) %MON dynstat_eta_max              =   4.9560654523107E-04
(PID.TID 0000.0001) %MON dynstat_eta_min              =  -4.6924804662922E-04
(PID.TID 0000.0001) %MON dynstat_eta_mean             =   8.4796920418739E-17
(PID.TID 0000.0001) %MON dynstat_eta_sd               =   3.5997007617278E-04
(PID.TID 0000.0001) %MON dynstat_eta_del2             =   2.3119617075478E-06
(PID.TID 0000.0001) %MON dynstat_uvel_max             =   5.4466423074550E-02
(PID.TID 0000.0001) %MON dynstat_uvel_min             =  -4.6743652125783E-02
(PID.TID 0000.0001) %MON dynstat_uvel_mean            =  -7.6778566562479E-06
(PID.TID 0000.0001) %MON dynstat_uvel_sd              =   5.8171101706333E-03
(PID.TID 0000.0001) %MON dynstat_uvel_del2            =   3.7760714210734E-05
(PID.TID 0000.0001) %MON dynstat_vvel_max             =   5.3256175371466E-02
(PID.TID 0000.0001) %MON dynstat_vvel_min             =  -5.3203009409180E-02
(PID.TID 0000.0001) %MON dynstat_vvel_mean            =   1.5384375818229E-09
(PID.TID 0000.0001) %MON dynstat_vvel_sd              =   9.6639429517929E-03
(PID.TID 0000.0001) %MON dynstat_vvel_del2            =   8.8735584313810E-05
(PID.TID 0000.0001) %MON dynstat_wvel_max             =   1.5212005359439E-03
(PID.TID 0000.0001) %MON dynstat_wvel_min             =  -1.2524447314992E-03
(PID.TID 0000.0001) %MON dynstat_wvel_mean            =   2.0276896561248E-20
(PID.TID 0000.0001) %MON dynstat_wvel_sd              =   2.4259091075337E-04
(PID.TID 0000.0001) %MON dynstat_wvel_del2            =   2.7828783067263E-06
(PID.TID 0000.0001) %MON dynstat_theta_max            =   1.7020389410730E+01
(PID.TID 0000.0001) %MON dynstat_theta_min            =   1.6979609693131E+01
(PID.TID 0000.0001) %MON dynstat_theta_mean           =   1.6999999918031E+01
(PID.TID 0000.0001) %MON dynstat_theta_sd             =   1.8286851133818E-02
(PID.TID 0000.0001) %MON dynstat_theta_del2           =   1.7717245512610E-05
(PID.TID 0000.0001) %MON dynstat_salt_max             =   1.7020387100725E+01
(PID.TID 0000.0001) %MON dynstat_salt_min             =   1.6979612985765E+01
(PID.TID 0000.0001) %MON dynstat_salt_mean            =   1.7000000006196E+01
(PID.TID 0000.0001) %MON dynstat_salt_sd              =   1.7208423719575E-02
(PID.TID 0000.0001) %MON dynstat_salt_del2            =   2.2658945199570E-05
(PID.TID 0000.0001) %MON advcfl_uvel_max              =   6.5359707689460E-02
(PID.TID 0000.0001) %MON advcfl_vvel_max              =   6.3907410445759E-02
(PID.TID 0000.0001) %MON advcfl_wvel_max              =   3.6508812862654E-01
(PID.TID 0000.0001) %MON advcfl_W_hf_max              =   3.6508812862654E-01
(PID.TID 0000.0001) %MON pe_b_mean                    =   3.1779116270196E-09
(PID.TID 0000.0001) %MON ke_max                       =   1.4775682654649E-03
(PID.TID 0000.0001) %MON ke_mean                      =   6.1747475663629E-05
(PID.TID 0000.0001) %MON ke_vol                       =   2.5000000000000E+11
(PID.TID 0000.0001) %MON vort_r_min                   =  -6.7205982118108E-05
(PID.TID 0000.0001) %MON vort_r_max                   =   8.5117736942012E-05
(PID.TID 0000.0001) %MON vort_a_mean                  =   7.2900000000000E-05
(PID.TID 0000.0001) %MON vort_a_sd                    =   1.3768269499746E-05
(PID.TID 0000.0001) %MON vort_p_mean                  =   7.7363265306122E-05
(PID.TID 0000.0001) %MON vort_p_sd                    =   3.4021385899344E-05
(PID.TID 0000.0001) %MON surfExpan_theta_mean         =  -3.6498090691310E-13
(PID.TID 0000.0001) %MON surfExpan_salt_mean          =   3.7131696974502E-14
(PID.TID 0000.0001) // =======================================================
(PID.TID 0000.0001) // End MONITOR dynamic field statistics
(PID.TID 0000.0001) // =======================================================
 cg2d: Sum(rhs),rhsMax =  -6.92779167366098E-14  5.15174862096044E-03
(PID.TID 0000.0001)                    cg2d_init_res =    7.26668070977663E-02
(PID.TID 0000.0001)                       cg2d_iters =    86
(PID.TID 0000.0001)                         cg2d_res =    7.45117908573426E-12
(PID.TID 0000.0001) // =======================================================
(PID.TID 0000.0001) // Begin MONITOR dynamic field statistics
(PID.TID 0000.0001) // =======================================================
(PID.TID 0000.0001) %MON time_tsnumber                =                    43
(PID.TID 0000.0001) %MON time_secondsf                =   5.1600000000000E+04
(PID.TID 0000.0001) %MON dynstat_eta_max              =   4.9604927125604E-04
(PID.TID 0000.0001) %MON dynstat_eta_min              =  -4.6919586319402E-04
(PID.TID 0000.0001) %MON dynstat_eta_mean             =   7.9032033681870E-17
(PID.TID 0000.0001) %MON dynstat_eta_sd               =   3.5989959313023E-04
(PID.TID 0000.0001) %MON dynstat_eta_del2             =   2.3119297830901E-06
(PID.TID 0000.0001) %MON dynstat_uvel_max             =   5.4587962435079E-02
(PID.TID 0000.0001) %MON dynstat_uvel_min             =  -4.6842061763252E-02
(PID.TID 0000.0001) %MON dynstat_uvel_mean            =  -7.7034525699375E-06
(PID.TID 0000.0001) %MON dynstat_uvel_sd              =   5.8102942231576E-03
(PID.TID 0000.0001) %MON dynstat_uvel_del2            =   3.7607969854345E-05
(PID.TID 0000.0001) %MON dynstat_vvel_max             =   5.2751165997175E-02
(PID.TID 0000.0001) %MON dynstat_vvel_min             =  -5.3023052802500E-02
(PID.TID 0000.0001) %MON dynstat_vvel_mean            =   1.6305424724473E-09
(PID.TID 0000.0001) %MON dynstat_vvel_sd              =   9.6970569379458E-03
(PID.TID 0000.0001) %MON dynstat_vvel_del2            =   8.8557302454806E-05
(PID.TID 0000.0001) %MON dynstat_wvel_max             =   1.5090890883069E-03
(PID.TID 0000.0001) %MON dynstat_wvel_min             =  -1.2378491269415E-03
(PID.TID 0000.0001) %MON dynstat_wvel_mean            =  -5.1871130738077E-21
(PID.TID 0000.0001) %MON dynstat_wvel_sd              =   2.4292034180792E-04
(PID.TID 0000.0001) %MON dynstat_wvel_del2            =   2.7794119060782E-06
(PID.TID 0000.0001) %MON dynstat_theta_max            =   1.7020389406190E+01
(PID.TID 0000.0001) %MON dynstat_theta_min            =   1.6979609694601E+01
(PID.TID 0000.0001) %MON dynstat_theta_mean           =   1.6999999918033E+01
(PID.TID 0000.0001) %MON dynstat_theta_sd             =   1.8285708536114E-02
(PID.TID 0000.0001) %MON dynstat_theta_del2           =   1.7776585235132E-05
(PID.TID 0000.0001) %MON dynstat_salt_max             =   1.7020387100725E+01
(PID.TID 0000.0001) %MON dynstat_salt_min             =   1.6979612985765E+01
(PID.TID 0000.0001) %MON dynstat_salt_mean            =   1.7000000006196E+01
(PID.TID 0000.0001) %MON dynstat_salt_sd              =   1.7206859816328E-02
(PID.TID 0000.0001) %MON dynstat_salt_del2            =   2.2663149899491E-05
(PID.TID 0000.0001) %MON advcfl_uvel_max              =   6.5505554922095E-02
(PID.TID 0000.0001) %MON advcfl_vvel_max              =   6.3627663362999E-02
(PID.TID 0000.0001) %MON advcfl_wvel_max              =   3.6218138119365E-01
(PID.TID 0000.0001) %MON advcfl_W_hf_max              =   3.6218138119365E-01
(PID.TID 0000.0001) %MON pe_b_mean                    =   3.1766672627433E-09
(PID.TID 0000.0001) %MON ke_max                       =   1.4545242161592E-03
(PID.TID 0000.0001) %MON ke_mean                      =   6.2015587515147E-05
(PID.TID 0000.0001) %MON ke_vol                       =   2.5000000000000E+11
(PID.TID 0000.0001) %MON vort_r_min                   =  -6.7121199738364E-05
(PID.TID 0000.0001) %MON vort_r_max                   =   8.4671436807034E-05
(PID.TID 0000.0001) %MON vort_a_mean                  =   7.2900000000000E-05
(PID.TID 0000.0001) %MON vort_a_sd                    =   1.3735933771406E-05
(PID.TID 0000.0001) %MON vort_p_mean                  =   7.7363265306123E-05
(PID.TID 0000.0001) %MON vort_p_sd                    =   3.3992352019614E-05
(PID.TID 0000.0001) %MON surfExpan_theta_mean         =  -3.5077224031577E-13
(PID.TID 0000.0001) %MON surfExpan_salt_mean          =   2.0091558949176E-14
(PID.TID 0000.0001) // =======================================================
(PID.TID 0000.0001) // End MONITOR dynamic field statistics
(PID.TID 0000.0001) // =======================================================
 cg2d: Sum(rhs),rhsMax =  -6.66133814775094E-14  5.13316881165101E-03
(PID.TID 0000.0001)                    cg2d_init_res =    7.24912221784696E-02
(PID.TID 0000.0001)                       cg2d_iters =    86
(PID.TID 0000.0001)                         cg2d_res =    7.83461216438190E-12
(PID.TID 0000.0001) // =======================================================
(PID.TID 0000.0001) // Begin MONITOR dynamic field statistics
(PID.TID 0000.0001) // =======================================================
(PID.TID 0000.0001) %MON time_tsnumber                =                    44
(PID.TID 0000.0001) %MON time_secondsf                =   5.2800000000000E+04
(PID.TID 0000.0001) %MON dynstat_eta_max              =   4.9644281897059E-04
(PID.TID 0000.0001) %MON dynstat_eta_min              =  -4.6915981574962E-04
(PID.TID 0000.0001) %MON dynstat_eta_mean             =   7.1497634053230E-17
(PID.TID 0000.0001) %MON dynstat_eta_sd               =   3.5982639608008E-04
(PID.TID 0000.0001) %MON dynstat_eta_del2             =   2.3124853043615E-06
(PID.TID 0000.0001) %MON dynstat_uvel_max             =   5.4759057975887E-02
(PID.TID 0000.0001) %MON dynstat_uvel_min             =  -4.6989739669212E-02
(PID.TID 0000.0001) %MON dynstat_uvel_mean            =  -7.7315341890454E-06
(PID.TID 0000.0001) %MON dynstat_uvel_sd              =   5.8200790677699E-03
(PID.TID 0000.0001) %MON dynstat_uvel_del2            =   3.7473703157845E-05
(PID.TID 0000.0001) %MON dynstat_vvel_max             =   5.2242550866530E-02
(PID.TID 0000.0001) %MON dynstat_vvel_min             =  -5.3707146997833E-02
(PID.TID 0000.0001) %MON dynstat_vvel_mean            =   1.7196249834727E-09
(PID.TID 0000.0001) %MON dynstat_vvel_sd              =   9.7253931739349E-03
(PID.TID 0000.0001) %MON dynstat_vvel_del2            =   8.8360659006593E-05
(PID.TID 0000.0001) %MON dynstat_wvel_max             =   1.4961766112690E-03
(PID.TID 0000.0001) %MON dynstat_wvel_min             =  -1.2230826270606E-03
(PID.TID 0000.0001) %MON dynstat_wvel_mean            =   2.5464009635056E-20
(PID.TID 0000.0001) %MON dynstat_wvel_sd              =   2.4319082486481E-04
(PID.TID 0000.0001) %MON dynstat_wvel_del2            =   2.7773835807305E-06
(PID.TID 0000.0001) %MON dynstat_theta_max            =   1.7020389401397E+01
(PID.TID 0000.0001) %MON dynstat_theta_min            =   1.6979609695965E+01
(PID.TID 0000.0001) %MON dynstat_theta_mean           =   1.6999999918035E+01
(PID.TID 0000.0001) %MON dynstat_theta_sd             =   1.8284557001812E-02
(PID.TID 0000.0001) %MON dynstat_theta_del2           =   1.7837591893815E-05
(PID.TID 0000.0001) %MON dynstat_salt_max             =   1.7020387100725E+01
(PID.TID 0000.0001) %MON dynstat_salt_min             =   1.6979612985765E+01
(PID.TID 0000.0001) %MON dynstat_salt_mean            =   1.7000000006196E+01
(PID.TID 0000.0001) %MON dynstat_salt_sd              =   1.7205289688743E-02
(PID.TID 0000.0001) %MON dynstat_salt_del2            =   2.2666305770645E-05
(PID.TID 0000.0001) %MON advcfl_uvel_max              =   6.5710869571064E-02
(PID.TID 0000.0001) %MON advcfl_vvel_max              =   6.4448576397400E-02
(PID.TID 0000.0001) %MON advcfl_wvel_max              =   3.5908238670456E-01
(PID.TID 0000.0001) %MON advcfl_W_hf_max              =   3.5908238670456E-01
(PID.TID 0000.0001) %MON pe_b_mean                    =   3.1753752411243E-09
(PID.TID 0000.0001) %MON ke_max                       =   1.4370487825712E-03
(PID.TID 0000.0001) %MON ke_mean                      =   6.2336660811916E-05
(PID.TID 0000.0001) %MON ke_vol                       =   2.5000000000000E+11
(PID.TID 0000.0001) %MON vort_r_min                   =  -6.7024293988273E-05
(PID.TID 0000.0001) %MON vort_r_max                   =   8.4255179689573E-05
(PID.TID 0000.0001) %MON vort_a_mean                  =   7.2900000000000E-05
(PID.TID 0000.0001) %MON vort_a_sd                    =   1.3702460304962E-05
(PID.TID 0000.0001) %MON vort_p_mean                  =   7.7363265306122E-05
(PID.TID 0000.0001) %MON vort_p_sd                    =   3.3962823846936E-05
(PID.TID 0000.0001) %MON surfExpan_theta_mean         =  -3.3564179791155E-13
(PID.TID 0000.0001) %MON surfExpan_salt_mean          =  -1.1061818776525E-16
(PID.TID 0000.0001) // =======================================================
(PID.TID 0000.0001) // End MONITOR dynamic field statistics
(PID.TID 0000.0001) // =======================================================
 cg2d: Sum(rhs),rhsMax =  -6.48370246381091E-14  5.11388709017015E-03
(PID.TID 0000.0001)                    cg2d_init_res =    7.20669091404878E-02
(PID.TID 0000.0001)                       cg2d_iters =    86
(PID.TID 0000.0001)                         cg2d_res =    8.11925378941165E-12
(PID.TID 0000.0001) // =======================================================
(PID.TID 0000.0001) // Begin MONITOR dynamic field statistics
(PID.TID 0000.0001) // =======================================================
(PID.TID 0000.0001) %MON time_tsnumber                =                    45
(PID.TID 0000.0001) %MON time_secondsf                =   5.4000000000000E+04
(PID.TID 0000.0001) %MON dynstat_eta_max              =   4.9678684387517E-04
(PID.TID 0000.0001) %MON dynstat_eta_min              =  -4.6914248351149E-04
(PID.TID 0000.0001) %MON dynstat_eta_mean             =   9.1427937150002E-17
(PID.TID 0000.0001) %MON dynstat_eta_sd               =   3.5975074495941E-04
(PID.TID 0000.0001) %MON dynstat_eta_del2             =   2.3136330759146E-06
(PID.TID 0000.0001) %MON dynstat_uvel_max             =   5.4979267028404E-02
(PID.TID 0000.0001) %MON dynstat_uvel_min             =  -4.7185747332517E-02
(PID.TID 0000.0001) %MON dynstat_uvel_mean            =  -7.7622072706498E-06
(PID.TID 0000.0001) %MON dynstat_uvel_sd              =   5.8477671763275E-03
(PID.TID 0000.0001) %MON dynstat_uvel_del2            =   3.7358844143800E-05
(PID.TID 0000.0001) %MON dynstat_vvel_max             =   5.1733439212674E-02
(PID.TID 0000.0001) %MON dynstat_vvel_min             =  -5.4297127573355E-02
(PID.TID 0000.0001) %MON dynstat_vvel_mean            =   1.8051245534172E-09
(PID.TID 0000.0001) %MON dynstat_vvel_sd              =   9.7479448553876E-03
(PID.TID 0000.0001) %MON dynstat_vvel_del2            =   8.8146563023142E-05
(PID.TID 0000.0001) %MON dynstat_wvel_max             =   1.4825661173095E-03
(PID.TID 0000.0001) %MON dynstat_wvel_min             =  -1.2083263445970E-03
(PID.TID 0000.0001) %MON dynstat_wvel_mean            =   1.8862229359301E-20
(PID.TID 0000.0001) %MON dynstat_wvel_sd              =   2.4335731981205E-04
(PID.TID 0000.0001) %MON dynstat_wvel_del2            =   2.7766770191671E-06
(PID.TID 0000.0001) %MON dynstat_theta_max            =   1.7020389396372E+01
(PID.TID 0000.0001) %MON dynstat_theta_min            =   1.6979609697329E+01
(PID.TID 0000.0001) %MON dynstat_theta_mean           =   1.6999999918037E+01
(PID.TID 0000.0001) %MON dynstat_theta_sd             =   1.8283394949623E-02
(PID.TID 0000.0001) %MON dynstat_theta_del2           =   1.7899908264889E-05
(PID.TID 0000.0001) %MON dynstat_salt_max             =   1.7020387100725E+01
(PID.TID 0000.0001) %MON dynstat_salt_min             =   1.6979612985765E+01
(PID.TID 0000.0001) %MON dynstat_salt_mean            =   1.7000000006196E+01
(PID.TID 0000.0001) %MON dynstat_salt_sd              =   1.7203709741707E-02
(PID.TID 0000.0001) %MON dynstat_salt_del2            =   2.2667129883799E-05
(PID.TID 0000.0001) %MON advcfl_uvel_max              =   6.5975120434085E-02
(PID.TID 0000.0001) %MON advcfl_vvel_max              =   6.5156553088026E-02
(PID.TID 0000.0001) %MON advcfl_wvel_max              =   3.5581586815429E-01
(PID.TID 0000.0001) %MON advcfl_W_hf_max              =   3.5581586815429E-01
(PID.TID 0000.0001) %MON pe_b_mean                    =   3.1740401781842E-09
(PID.TID 0000.0001) %MON ke_max                       =   1.4761518977341E-03
(PID.TID 0000.0001) %MON ke_mean                      =   6.2708986473965E-05
(PID.TID 0000.0001) %MON ke_vol                       =   2.5000000000000E+11
(PID.TID 0000.0001) %MON vort_r_min                   =  -6.6915117086460E-05
(PID.TID 0000.0001) %MON vort_r_max                   =   8.3872698471338E-05
(PID.TID 0000.0001) %MON vort_a_mean                  =   7.2900000000000E-05
(PID.TID 0000.0001) %MON vort_a_sd                    =   1.3668298195205E-05
(PID.TID 0000.0001) %MON vort_p_mean                  =   7.7363265306122E-05
(PID.TID 0000.0001) %MON vort_p_sd                    =   3.3933422345412E-05
(PID.TID 0000.0001) %MON surfExpan_theta_mean         =  -3.1936391713154E-13
(PID.TID 0000.0001) %MON surfExpan_salt_mean          =  -2.2494184252242E-14
(PID.TID 0000.0001) // =======================================================
(PID.TID 0000.0001) // End MONITOR dynamic field statistics
(PID.TID 0000.0001) // =======================================================
 cg2d: Sum(rhs),rhsMax =  -8.08242361927114E-14  5.09425029012195E-03
(PID.TID 0000.0001)                    cg2d_init_res =    7.16485576041224E-02
(PID.TID 0000.0001)                       cg2d_iters =    86
(PID.TID 0000.0001)                         cg2d_res =    8.57372864893049E-12
(PID.TID 0000.0001) // =======================================================
(PID.TID 0000.0001) // Begin MONITOR dynamic field statistics
(PID.TID 0000.0001) // =======================================================
(PID.TID 0000.0001) %MON time_tsnumber                =                    46
(PID.TID 0000.0001) %MON time_secondsf                =   5.5200000000000E+04
(PID.TID 0000.0001) %MON dynstat_eta_max              =   4.9708535169613E-04
(PID.TID 0000.0001) %MON dynstat_eta_min              =  -4.6913591061224E-04
(PID.TID 0000.0001) %MON dynstat_eta_mean             =   9.0086832642555E-17
(PID.TID 0000.0001) %MON dynstat_eta_sd               =   3.5967294490637E-04
(PID.TID 0000.0001) %MON dynstat_eta_del2             =   2.3153748972455E-06
(PID.TID 0000.0001) %MON dynstat_uvel_max             =   5.5247482267762E-02
(PID.TID 0000.0001) %MON dynstat_uvel_min             =  -4.7428667808262E-02
(PID.TID 0000.0001) %MON dynstat_uvel_mean            =  -7.7955467306225E-06
(PID.TID 0000.0001) %MON dynstat_uvel_sd              =   5.8942098963288E-03
(PID.TID 0000.0001) %MON dynstat_uvel_del2            =   3.7263942195639E-05
(PID.TID 0000.0001) %MON dynstat_vvel_max             =   5.1226946172706E-02
(PID.TID 0000.0001) %MON dynstat_vvel_min             =  -5.4788521392532E-02
(PID.TID 0000.0001) %MON dynstat_vvel_mean            =   1.8866535968070E-09
(PID.TID 0000.0001) %MON dynstat_vvel_sd              =   9.7638323457281E-03
(PID.TID 0000.0001) %MON dynstat_vvel_del2            =   8.7916120945821E-05
(PID.TID 0000.0001) %MON dynstat_wvel_max             =   1.4683514013819E-03
(PID.TID 0000.0001) %MON dynstat_wvel_min             =  -1.1936503942989E-03
(PID.TID 0000.0001) %MON dynstat_wvel_mean            =  -3.1122678442846E-20
(PID.TID 0000.0001) %MON dynstat_wvel_sd              =   2.4338008343957E-04
(PID.TID 0000.0001) %MON dynstat_wvel_del2            =   2.7771576548889E-06
(PID.TID 0000.0001) %MON dynstat_theta_max            =   1.7020389391135E+01
(PID.TID 0000.0001) %MON dynstat_theta_min            =   1.6979609698596E+01
(PID.TID 0000.0001) %MON dynstat_theta_mean           =   1.6999999918039E+01
(PID.TID 0000.0001) %MON dynstat_theta_sd             =   1.8282217865013E-02
(PID.TID 0000.0001) %MON dynstat_theta_del2           =   1.7962951411818E-05
(PID.TID 0000.0001) %MON dynstat_salt_max             =   1.7020387100725E+01
(PID.TID 0000.0001) %MON dynstat_salt_min             =   1.6979612985765E+01
(PID.TID 0000.0001) %MON dynstat_salt_mean            =   1.7000000006196E+01
(PID.TID 0000.0001) %MON dynstat_salt_sd              =   1.7202121638595E-02
(PID.TID 0000.0001) %MON dynstat_salt_del2            =   2.2667580741664E-05
(PID.TID 0000.0001) %MON advcfl_uvel_max              =   6.6296978721315E-02
(PID.TID 0000.0001) %MON advcfl_vvel_max              =   6.5746225671038E-02
(PID.TID 0000.0001) %MON advcfl_wvel_max              =   3.5240433633165E-01
(PID.TID 0000.0001) %MON advcfl_W_hf_max              =   3.5240433633165E-01
(PID.TID 0000.0001) %MON pe_b_mean                    =   3.1726674844741E-09
(PID.TID 0000.0001) %MON ke_max                       =   1.5109616347924E-03
(PID.TID 0000.0001) %MON ke_mean                      =   6.3130448132500E-05
(PID.TID 0000.0001) %MON ke_vol                       =   2.5000000000000E+11
(PID.TID 0000.0001) %MON vort_r_min                   =  -6.6793634924899E-05
(PID.TID 0000.0001) %MON vort_r_max                   =   8.3527377721127E-05
(PID.TID 0000.0001) %MON vort_a_mean                  =   7.2900000000000E-05
(PID.TID 0000.0001) %MON vort_a_sd                    =   1.3633882912660E-05
(PID.TID 0000.0001) %MON vort_p_mean                  =   7.7363265306122E-05
(PID.TID 0000.0001) %MON vort_p_sd                    =   3.3904753883271E-05
(PID.TID 0000.0001) %MON surfExpan_theta_mean         =  -3.0083257114590E-13
(PID.TID 0000.0001) %MON surfExpan_salt_mean          =  -4.7844756775284E-14
(PID.TID 0000.0001) // =======================================================
(PID.TID 0000.0001) // End MONITOR dynamic field statistics
(PID.TID 0000.0001) // =======================================================
 cg2d: Sum(rhs),rhsMax =  -9.23705556488130E-14  5.07468483143588E-03
(PID.TID 0000.0001)                    cg2d_init_res =    7.13580319089861E-02
(PID.TID 0000.0001)                       cg2d_iters =    86
(PID.TID 0000.0001)                         cg2d_res =    9.26193081117088E-12
(PID.TID 0000.0001) // =======================================================
(PID.TID 0000.0001) // Begin MONITOR dynamic field statistics
(PID.TID 0000.0001) // =======================================================
(PID.TID 0000.0001) %MON time_tsnumber                =                    47
(PID.TID 0000.0001) %MON time_secondsf                =   5.6400000000000E+04
(PID.TID 0000.0001) %MON dynstat_eta_max              =   4.9733620073179E-04
(PID.TID 0000.0001) %MON dynstat_eta_min              =  -4.6916558814281E-04
(PID.TID 0000.0001) %MON dynstat_eta_mean             =   9.8021700978279E-17
(PID.TID 0000.0001) %MON dynstat_eta_sd               =   3.5959328306456E-04
(PID.TID 0000.0001) %MON dynstat_eta_del2             =   2.3176839169725E-06
(PID.TID 0000.0001) %MON dynstat_uvel_max             =   5.5562405833444E-02
(PID.TID 0000.0001) %MON dynstat_uvel_min             =  -4.7716715178811E-02
(PID.TID 0000.0001) %MON dynstat_uvel_mean            =  -7.8315959074306E-06
(PID.TID 0000.0001) %MON dynstat_uvel_sd              =   5.9597436055463E-03
(PID.TID 0000.0001) %MON dynstat_uvel_del2            =   3.7189169327912E-05
(PID.TID 0000.0001) %MON dynstat_vvel_max             =   5.0740017661756E-02
(PID.TID 0000.0001) %MON dynstat_vvel_min             =  -5.5177954239446E-02
(PID.TID 0000.0001) %MON dynstat_vvel_mean            =   1.9635959856212E-09
(PID.TID 0000.0001) %MON dynstat_vvel_sd              =   9.7723268862858E-03
(PID.TID 0000.0001) %MON dynstat_vvel_del2            =   8.7670636192768E-05
(PID.TID 0000.0001) %MON dynstat_wvel_max             =   1.4538132081505E-03
(PID.TID 0000.0001) %MON dynstat_wvel_min             =  -1.1792679063801E-03
(PID.TID 0000.0001) %MON dynstat_wvel_mean            =   2.7350232570986E-20
(PID.TID 0000.0001) %MON dynstat_wvel_sd              =   2.4322593569838E-04
(PID.TID 0000.0001) %MON dynstat_wvel_del2            =   2.7786819231927E-06
(PID.TID 0000.0001) %MON dynstat_theta_max            =   1.7020389385709E+01
(PID.TID 0000.0001) %MON dynstat_theta_min            =   1.6979609699804E+01
(PID.TID 0000.0001) %MON dynstat_theta_mean           =   1.6999999918041E+01
(PID.TID 0000.0001) %MON dynstat_theta_sd             =   1.8281023831567E-02
(PID.TID 0000.0001) %MON dynstat_theta_del2           =   1.8026342572189E-05
(PID.TID 0000.0001) %MON dynstat_salt_max             =   1.7020387100725E+01
(PID.TID 0000.0001) %MON dynstat_salt_min             =   1.6979612985765E+01
(PID.TID 0000.0001) %MON dynstat_salt_mean            =   1.7000000006196E+01
(PID.TID 0000.0001) %MON dynstat_salt_sd              =   1.7200522723303E-02
(PID.TID 0000.0001) %MON dynstat_salt_del2            =   2.2666994912819E-05
(PID.TID 0000.0001) %MON advcfl_uvel_max              =   6.6674887000133E-02
(PID.TID 0000.0001) %MON advcfl_vvel_max              =   6.6213545087335E-02
(PID.TID 0000.0001) %MON advcfl_wvel_max              =   3.4891516995611E-01
(PID.TID 0000.0001) %MON advcfl_W_hf_max              =   3.4891516995611E-01
(PID.TID 0000.0001) %MON pe_b_mean                    =   3.1712622492467E-09
(PID.TID 0000.0001) %MON ke_max                       =   1.5411212347944E-03
(PID.TID 0000.0001) %MON ke_mean                      =   6.3598521519638E-05
(PID.TID 0000.0001) %MON ke_vol                       =   2.5000000000000E+11
(PID.TID 0000.0001) %MON vort_r_min                   =  -6.6659925632382E-05
(PID.TID 0000.0001) %MON vort_r_max                   =   8.3222178522779E-05
(PID.TID 0000.0001) %MON vort_a_mean                  =   7.2900000000000E-05
(PID.TID 0000.0001) %MON vort_a_sd                    =   1.3599627936605E-05
(PID.TID 0000.0001) %MON vort_p_mean                  =   7.7363265306123E-05
(PID.TID 0000.0001) %MON vort_p_sd                    =   3.3877395015932E-05
(PID.TID 0000.0001) %MON surfExpan_theta_mean         =  -2.7928184063724E-13
(PID.TID 0000.0001) %MON surfExpan_salt_mean          =  -7.5883505690300E-14
(PID.TID 0000.0001) // =======================================================
(PID.TID 0000.0001) // End MONITOR dynamic field statistics
(PID.TID 0000.0001) // =======================================================
 cg2d: Sum(rhs),rhsMax =  -8.34887714518118E-14  5.05554003851262E-03
(PID.TID 0000.0001)                    cg2d_init_res =    7.09121765874687E-02
(PID.TID 0000.0001)                       cg2d_iters =    86
(PID.TID 0000.0001)                         cg2d_res =    9.54382664922231E-12
(PID.TID 0000.0001) // =======================================================
(PID.TID 0000.0001) // Begin MONITOR dynamic field statistics
(PID.TID 0000.0001) // =======================================================
(PID.TID 0000.0001) %MON time_tsnumber                =                    48
(PID.TID 0000.0001) %MON time_secondsf                =   5.7600000000000E+04
(PID.TID 0000.0001) %MON dynstat_eta_max              =   4.9754143016764E-04
(PID.TID 0000.0001) %MON dynstat_eta_min              =  -4.6919784370778E-04
(PID.TID 0000.0001) %MON dynstat_eta_mean             =   8.4675848484039E-17
(PID.TID 0000.0001) %MON dynstat_eta_sd               =   3.5951211143989E-04
(PID.TID 0000.0001) %MON dynstat_eta_del2             =   2.3205562523856E-06
(PID.TID 0000.0001) %MON dynstat_uvel_max             =   5.5922003705109E-02
(PID.TID 0000.0001) %MON dynstat_uvel_min             =  -4.8047950763110E-02
(PID.TID 0000.0001) %MON dynstat_uvel_mean            =  -7.8703730237480E-06
(PID.TID 0000.0001) %MON dynstat_uvel_sd              =   6.0441611262573E-03
(PID.TID 0000.0001) %MON dynstat_uvel_del2            =   3.7134361300468E-05
(PID.TID 0000.0001) %MON dynstat_vvel_max             =   5.1064510849638E-02
(PID.TID 0000.0001) %MON dynstat_vvel_min             =  -5.5463148828316E-02
(PID.TID 0000.0001) %MON dynstat_vvel_mean            =   2.0354107446192E-09
(PID.TID 0000.0001) %MON dynstat_vvel_sd              =   9.7728693066940E-03
(PID.TID 0000.0001) %MON dynstat_vvel_del2            =   8.7411587441297E-05
(PID.TID 0000.0001) %MON dynstat_wvel_max             =   1.4396311673821E-03
(PID.TID 0000.0001) %MON dynstat_wvel_min             =  -1.1661522606274E-03
(PID.TID 0000.0001) %MON dynstat_wvel_mean            =   1.8862229359301E-20
(PID.TID 0000.0001) %MON dynstat_wvel_sd              =   2.4286928364147E-04
(PID.TID 0000.0001) %MON dynstat_wvel_del2            =   2.7811009333568E-06
(PID.TID 0000.0001) %MON dynstat_theta_max            =   1.7020389380111E+01
(PID.TID 0000.0001) %MON dynstat_theta_min            =   1.6979609700311E+01
(PID.TID 0000.0001) %MON dynstat_theta_mean           =   1.6999999918042E+01
(PID.TID 0000.0001) %MON dynstat_theta_sd             =   1.8279813993220E-02
(PID.TID 0000.0001) %MON dynstat_theta_del2           =   1.8089654594190E-05
(PID.TID 0000.0001) %MON dynstat_salt_max             =   1.7020387100725E+01
(PID.TID 0000.0001) %MON dynstat_salt_min             =   1.6979612985765E+01
(PID.TID 0000.0001) %MON dynstat_salt_mean            =   1.7000000006197E+01
(PID.TID 0000.0001) %MON dynstat_salt_sd              =   1.7198907320159E-02
(PID.TID 0000.0001) %MON dynstat_salt_del2            =   2.2666018289211E-05
(PID.TID 0000.0001) %MON advcfl_uvel_max              =   6.7106404446130E-02
(PID.TID 0000.0001) %MON advcfl_vvel_max              =   6.6555778593979E-02
(PID.TID 0000.0001) %MON advcfl_wvel_max              =   3.4551148017170E-01
(PID.TID 0000.0001) %MON advcfl_W_hf_max              =   3.4551148017170E-01
(PID.TID 0000.0001) %MON pe_b_mean                    =   3.1698307016200E-09
(PID.TID 0000.0001) %MON ke_max                       =   1.5663291668158E-03
(PID.TID 0000.0001) %MON ke_mean                      =   6.4110280584614E-05
(PID.TID 0000.0001) %MON ke_vol                       =   2.5000000000000E+11
(PID.TID 0000.0001) %MON vort_r_min                   =  -6.6514176980581E-05
(PID.TID 0000.0001) %MON vort_r_max                   =   8.2959599080767E-05
(PID.TID 0000.0001) %MON vort_a_mean                  =   7.2900000000000E-05
(PID.TID 0000.0001) %MON vort_a_sd                    =   1.3565916911679E-05
(PID.TID 0000.0001) %MON vort_p_mean                  =   7.7363265306122E-05
(PID.TID 0000.0001) %MON vort_p_sd                    =   3.3851877883914E-05
(PID.TID 0000.0001) %MON surfExpan_theta_mean         =  -2.5325072243749E-13
(PID.TID 0000.0001) %MON surfExpan_salt_mean          =  -1.0599000973706E-13
(PID.TID 0000.0001) // =======================================================
(PID.TID 0000.0001) // End MONITOR dynamic field statistics
(PID.TID 0000.0001) // =======================================================
 Computing Diagnostic #    142  momKE        Counter:      12   Parms: SMR     MR      
 Computing Diagnostic #    143  momHDiv      Counter:      12   Parms: SMR     MR      
 Computing Diagnostic #    144  momVort3     Counter:      12   Parms: SZR     MR      
 Computing Diagnostic #    145  Strain       Counter:      12   Parms: SZR     MR      
 Computing Diagnostic #    146  Tension      Counter:      12   Parms: SMR     MR      
 Computing Diagnostic #    118  VISCAHD      Counter:      12   Parms: SM      MR      
 Computing Diagnostic #    119  VISCA4D      Counter:      12   Parms: SM      MR      
 Computing Diagnostic #    116  VISCAHZ      Counter:      12   Parms: SZ      MR      
 Computing Diagnostic #    117  VISCA4Z      Counter:      12   Parms: SZ      MR      
 Computing Diagnostic #    124  VAHDMAX      Counter:      12   Parms: SM      MR      
 Computing Diagnostic #    125  VA4DMAX      Counter:      12   Parms: SM      MR      
 Computing Diagnostic #    122  VAHZMAX      Counter:      12   Parms: SZ      MR      
 Computing Diagnostic #    123  VA4ZMAX      Counter:      12   Parms: SZ      MR      
 Computing Diagnostic #    128  VAHDMIN      Counter:      12   Parms: SM      MR      
 Computing Diagnostic #    129  VA4DMIN      Counter:      12   Parms: SM      MR      
 Computing Diagnostic #    126  VAHZMIN      Counter:      12   Parms: SZ      MR      
 Computing Diagnostic #    127  VA4ZMIN      Counter:      12   Parms: SZ      MR      
 Computing Diagnostic #    132  VAHDLTH      Counter:      12   Parms: SM      MR      
 Computing Diagnostic #    133  VA4DLTH      Counter:      12   Parms: SM      MR      
 Computing Diagnostic #    130  VAHZLTH      Counter:      12   Parms: SZ      MR      
 Computing Diagnostic #    131  VA4ZLTH      Counter:      12   Parms: SZ      MR      
 Computing Diagnostic #    136  VAHDLTHD     Counter:      12   Parms: SM      MR      
 Computing Diagnostic #    137  VA4DLTHD     Counter:      12   Parms: SM      MR      
 Computing Diagnostic #    134  VAHZLTHD     Counter:      12   Parms: SZ      MR      
 Computing Diagnostic #    135  VA4ZLTHD     Counter:      12   Parms: SZ      MR      
 Computing Diagnostic #    140  VAHDSMAG     Counter:      12   Parms: SM      MR      
 Computing Diagnostic #    141  VA4DSMAG     Counter:      12   Parms: SM      MR      
 Computing Diagnostic #    138  VAHZSMAG     Counter:      12   Parms: SZ      MR      
 Computing Diagnostic #    139  VA4ZSMAG     Counter:      12   Parms: SZ      MR      
(PID.TID 0000.0001) %CHECKPOINT        48 ckptA
(PID.TID 0000.0001)   Seconds in section "ALL                    [THE_MODEL_MAIN]":
(PID.TID 0000.0001)           User time:   5.8100000000000005
(PID.TID 0000.0001)         System time:  0.33000000000000002
(PID.TID 0000.0001)     Wall clock time:   31.590060949325562
(PID.TID 0000.0001)          No. starts:           1
(PID.TID 0000.0001)           No. stops:           1
(PID.TID 0000.0001)   Seconds in section "INITIALISE_FIXED       [THE_MODEL_MAIN]":
(PID.TID 0000.0001)           User time:  0.28000000000000003
(PID.TID 0000.0001)         System time:  5.00000000000000028E-002
(PID.TID 0000.0001)     Wall clock time:   6.4844439029693604
(PID.TID 0000.0001)          No. starts:           1
(PID.TID 0000.0001)           No. stops:           1
(PID.TID 0000.0001)   Seconds in section "THE_MAIN_LOOP          [THE_MODEL_MAIN]":
(PID.TID 0000.0001)           User time:   5.5300000000000002
(PID.TID 0000.0001)         System time:  0.28000000000000003
(PID.TID 0000.0001)     Wall clock time:   25.101129770278931
(PID.TID 0000.0001)          No. starts:           1
(PID.TID 0000.0001)           No. stops:           1
(PID.TID 0000.0001)   Seconds in section "INITIALISE_VARIA    [THE_MAIN_LOOP]":
(PID.TID 0000.0001)           User time:  0.20999999999999996
(PID.TID 0000.0001)         System time:  3.99999999999999939E-002
(PID.TID 0000.0001)     Wall clock time:   2.2431590557098389
(PID.TID 0000.0001)          No. starts:           1
(PID.TID 0000.0001)           No. stops:           1
(PID.TID 0000.0001)   Seconds in section "MAIN LOOP           [THE_MAIN_LOOP]":
(PID.TID 0000.0001)           User time:   5.3200000000000003
(PID.TID 0000.0001)         System time:  0.24000000000000002
(PID.TID 0000.0001)     Wall clock time:   22.857927083969116
(PID.TID 0000.0001)          No. starts:           1
(PID.TID 0000.0001)           No. stops:           1
(PID.TID 0000.0001)   Seconds in section "FORWARD_STEP        [THE_MAIN_LOOP]":
(PID.TID 0000.0001)           User time:   5.3200000000000003
(PID.TID 0000.0001)         System time:  0.24000000000000002
(PID.TID 0000.0001)     Wall clock time:   22.857803583145142
(PID.TID 0000.0001)          No. starts:          12
(PID.TID 0000.0001)           No. stops:          12
(PID.TID 0000.0001)   Seconds in section "DO_STATEVARS_DIAGS  [FORWARD_STEP]":
(PID.TID 0000.0001)           User time:   0.0000000000000000
(PID.TID 0000.0001)         System time:   0.0000000000000000
(PID.TID 0000.0001)     Wall clock time:  8.60691070556640625E-004
(PID.TID 0000.0001)          No. starts:          36
(PID.TID 0000.0001)           No. stops:          36
(PID.TID 0000.0001)   Seconds in section "LOAD_FIELDS_DRIVER  [FORWARD_STEP]":
(PID.TID 0000.0001)           User time:   0.0000000000000000
(PID.TID 0000.0001)         System time:   0.0000000000000000
(PID.TID 0000.0001)     Wall clock time:  3.33070755004882813E-004
(PID.TID 0000.0001)          No. starts:          12
(PID.TID 0000.0001)           No. stops:          12
(PID.TID 0000.0001)   Seconds in section "EXTERNAL_FLDS_LOAD [LOAD_FLDS_DRIVER]":
(PID.TID 0000.0001)           User time:   0.0000000000000000
(PID.TID 0000.0001)         System time:   0.0000000000000000
(PID.TID 0000.0001)     Wall clock time:  1.13725662231445313E-004
(PID.TID 0000.0001)          No. starts:          12
(PID.TID 0000.0001)           No. stops:          12
(PID.TID 0000.0001)   Seconds in section "DO_ATMOSPHERIC_PHYS [FORWARD_STEP]":
(PID.TID 0000.0001)           User time:   0.0000000000000000
(PID.TID 0000.0001)         System time:   0.0000000000000000
(PID.TID 0000.0001)     Wall clock time:  1.07526779174804688E-004
(PID.TID 0000.0001)          No. starts:          12
(PID.TID 0000.0001)           No. stops:          12
(PID.TID 0000.0001)   Seconds in section "DO_OCEANIC_PHYS     [FORWARD_STEP]":
(PID.TID 0000.0001)           User time:  0.11000000000000032
(PID.TID 0000.0001)         System time:   0.0000000000000000
(PID.TID 0000.0001)     Wall clock time:  0.10923194885253906
(PID.TID 0000.0001)          No. starts:          12
(PID.TID 0000.0001)           No. stops:          12
(PID.TID 0000.0001)   Seconds in section "DYNAMICS            [FORWARD_STEP]":
(PID.TID 0000.0001)           User time:   1.9900000000000029
(PID.TID 0000.0001)         System time:   0.0000000000000000
(PID.TID 0000.0001)     Wall clock time:   2.0059130191802979
(PID.TID 0000.0001)          No. starts:          12
(PID.TID 0000.0001)           No. stops:          12
(PID.TID 0000.0001)   Seconds in section "SOLVE_FOR_PRESSURE  [FORWARD_STEP]":
(PID.TID 0000.0001)           User time:  0.26999999999999957
(PID.TID 0000.0001)         System time:   0.0000000000000000
(PID.TID 0000.0001)     Wall clock time:  0.25150799751281738
(PID.TID 0000.0001)          No. starts:          12
(PID.TID 0000.0001)           No. stops:          12
(PID.TID 0000.0001)   Seconds in section "MOM_CORRECTION_STEP [FORWARD_STEP]":
(PID.TID 0000.0001)           User time:  5.99999999999996092E-002
(PID.TID 0000.0001)         System time:   0.0000000000000000
(PID.TID 0000.0001)     Wall clock time:  8.00650119781494141E-002
(PID.TID 0000.0001)          No. starts:          12
(PID.TID 0000.0001)           No. stops:          12
(PID.TID 0000.0001)   Seconds in section "BLOCKING_EXCHANGES  [FORWARD_STEP]":
(PID.TID 0000.0001)           User time:  0.16000000000000103
(PID.TID 0000.0001)         System time:   0.0000000000000000
(PID.TID 0000.0001)     Wall clock time:  0.17357563972473145
(PID.TID 0000.0001)          No. starts:          24
(PID.TID 0000.0001)           No. stops:          24
(PID.TID 0000.0001)   Seconds in section "THERMODYNAMICS      [FORWARD_STEP]":
(PID.TID 0000.0001)           User time:   1.5599999999999978
(PID.TID 0000.0001)         System time:   0.0000000000000000
(PID.TID 0000.0001)     Wall clock time:   1.5683412551879883
(PID.TID 0000.0001)          No. starts:          12
(PID.TID 0000.0001)           No. stops:          12
(PID.TID 0000.0001)   Seconds in section "TRC_CORRECTION_STEP [FORWARD_STEP]":
(PID.TID 0000.0001)           User time:  4.00000000000000355E-002
(PID.TID 0000.0001)         System time:   0.0000000000000000
(PID.TID 0000.0001)     Wall clock time:  1.95970535278320313E-002
(PID.TID 0000.0001)          No. starts:          12
(PID.TID 0000.0001)           No. stops:          12
(PID.TID 0000.0001)   Seconds in section "DO_STATEVARS_TAVE   [FORWARD_STEP]":
(PID.TID 0000.0001)           User time:   0.0000000000000000
(PID.TID 0000.0001)         System time:   0.0000000000000000
(PID.TID 0000.0001)     Wall clock time:  1.04904174804687500E-004
(PID.TID 0000.0001)          No. starts:          12
(PID.TID 0000.0001)           No. stops:          12
(PID.TID 0000.0001)   Seconds in section "MONITOR             [FORWARD_STEP]":
(PID.TID 0000.0001)           User time:  0.44999999999999840
(PID.TID 0000.0001)         System time:   0.0000000000000000
(PID.TID 0000.0001)     Wall clock time:  0.44166350364685059
(PID.TID 0000.0001)          No. starts:          12
(PID.TID 0000.0001)           No. stops:          12
(PID.TID 0000.0001)   Seconds in section "DO_THE_MODEL_IO     [FORWARD_STEP]":
(PID.TID 0000.0001)           User time:  0.65000000000000036
(PID.TID 0000.0001)         System time:  0.24000000000000002
(PID.TID 0000.0001)     Wall clock time:   18.175726175308228
(PID.TID 0000.0001)          No. starts:          12
(PID.TID 0000.0001)           No. stops:          12
(PID.TID 0000.0001)   Seconds in section "DO_WRITE_PICKUP     [FORWARD_STEP]":
(PID.TID 0000.0001)           User time:  2.00000000000004619E-002
(PID.TID 0000.0001)         System time:   0.0000000000000000
(PID.TID 0000.0001)     Wall clock time:  2.88128852844238281E-002
(PID.TID 0000.0001)          No. starts:          12
(PID.TID 0000.0001)           No. stops:          12
(PID.TID 0000.0001) // ======================================================
(PID.TID 0000.0001) // Tile <-> Tile communication statistics
(PID.TID 0000.0001) // ======================================================
(PID.TID 0000.0001) // o Tile number: 000001
(PID.TID 0000.0001) //         No. X exchanges =              0
(PID.TID 0000.0001) //            Max. X spins =              0
(PID.TID 0000.0001) //            Min. X spins =     1000000000
(PID.TID 0000.0001) //          Total. X spins =              0
(PID.TID 0000.0001) //            Avg. X spins =       0.00E+00
(PID.TID 0000.0001) //         No. Y exchanges =              0
(PID.TID 0000.0001) //            Max. Y spins =              0
(PID.TID 0000.0001) //            Min. Y spins =     1000000000
(PID.TID 0000.0001) //          Total. Y spins =              0
(PID.TID 0000.0001) //            Avg. Y spins =       0.00E+00
(PID.TID 0000.0001) // o Tile number: 000002
(PID.TID 0000.0001) //         No. X exchanges =              0
(PID.TID 0000.0001) //            Max. X spins =              0
(PID.TID 0000.0001) //            Min. X spins =     1000000000
(PID.TID 0000.0001) //          Total. X spins =              0
(PID.TID 0000.0001) //            Avg. X spins =       0.00E+00
(PID.TID 0000.0001) //         No. Y exchanges =              0
(PID.TID 0000.0001) //            Max. Y spins =              0
(PID.TID 0000.0001) //            Min. Y spins =     1000000000
(PID.TID 0000.0001) //          Total. Y spins =              0
(PID.TID 0000.0001) //            Avg. Y spins =       0.00E+00
(PID.TID 0000.0001) // o Tile number: 000003
(PID.TID 0000.0001) //         No. X exchanges =              0
(PID.TID 0000.0001) //            Max. X spins =              0
(PID.TID 0000.0001) //            Min. X spins =     1000000000
(PID.TID 0000.0001) //          Total. X spins =              0
(PID.TID 0000.0001) //            Avg. X spins =       0.00E+00
(PID.TID 0000.0001) //         No. Y exchanges =              0
(PID.TID 0000.0001) //            Max. Y spins =              0
(PID.TID 0000.0001) //            Min. Y spins =     1000000000
(PID.TID 0000.0001) //          Total. Y spins =              0
(PID.TID 0000.0001) //            Avg. Y spins =       0.00E+00
(PID.TID 0000.0001) // o Tile number: 000004
(PID.TID 0000.0001) //         No. X exchanges =              0
(PID.TID 0000.0001) //            Max. X spins =              0
(PID.TID 0000.0001) //            Min. X spins =     1000000000
(PID.TID 0000.0001) //          Total. X spins =              0
(PID.TID 0000.0001) //            Avg. X spins =       0.00E+00
(PID.TID 0000.0001) //         No. Y exchanges =              0
(PID.TID 0000.0001) //            Max. Y spins =              0
(PID.TID 0000.0001) //            Min. Y spins =     1000000000
(PID.TID 0000.0001) //          Total. Y spins =              0
(PID.TID 0000.0001) //            Avg. Y spins =       0.00E+00
(PID.TID 0000.0001) // o Thread number: 000001
(PID.TID 0000.0001) //            No. barriers =          12756
(PID.TID 0000.0001) //      Max. barrier spins =              1
(PID.TID 0000.0001) //      Min. barrier spins =              1
(PID.TID 0000.0001) //     Total barrier spins =          12756
(PID.TID 0000.0001) //      Avg. barrier spins =       1.00E+00
PROGRAM MAIN: Execution ended Normally
