(PID.TID 0000.0001) 
(PID.TID 0000.0001) // ======================================================
(PID.TID 0000.0001) //                      MITgcm UV
(PID.TID 0000.0001) //                      =========
(PID.TID 0000.0001) // ======================================================
(PID.TID 0000.0001) // execution environment starting up...
(PID.TID 0000.0001) 
(PID.TID 0000.0001) // MITgcmUV version:  checkpoint64c
(PID.TID 0000.0001) // Build user:        jmc
(PID.TID 0000.0001) // Build host:        baudelaire
(PID.TID 0000.0001) // Build date:        Sun Feb  3 17:56:37 EST 2013
(PID.TID 0000.0001) 
(PID.TID 0000.0001) // =======================================================
(PID.TID 0000.0001) // Execution Environment parameter file "eedata"
(PID.TID 0000.0001) // =======================================================
(PID.TID 0000.0001) ># Example "eedata" file
(PID.TID 0000.0001) ># Lines beginning "#" are comments
(PID.TID 0000.0001) ># nTx - No. threads per process in X
(PID.TID 0000.0001) ># nTy - No. threads per process in Y
(PID.TID 0000.0001) > &EEPARMS
(PID.TID 0000.0001) > useCubedSphereExchange=.TRUE.,
(PID.TID 0000.0001) ># unlimit the stack size for the FIZHI rad code
(PID.TID 0000.0001) >#EH3  useSETRLSTK is commented out (default: false) since, with the g77
(PID.TID 0000.0001) >#EH3  compiler, it causes the model to hang *without* returning -- thus
(PID.TID 0000.0001) >#EH3  killing all our automated g77 testing on, for instance, the ACES
(PID.TID 0000.0001) >#EH3  cluster.
(PID.TID 0000.0001) >#EH3  useSETRLSTK=.TRUE.,
(PID.TID 0000.0001) ># Activate one line below to support 2, 3 or 6 way multi-threading
(PID.TID 0000.0001) >#nTx=2,
(PID.TID 0000.0001) >#nTx=3,
(PID.TID 0000.0001) >#nTx=6,
(PID.TID 0000.0001) > /
(PID.TID 0000.0001) ># Note: Some systems use & as the
(PID.TID 0000.0001) ># namelist terminator. Other systems
(PID.TID 0000.0001) ># use a / character (as shown here).
(PID.TID 0000.0001) 
(PID.TID 0000.0001) // =======================================================
(PID.TID 0000.0001) // Computational Grid Specification ( see files "SIZE.h" )
(PID.TID 0000.0001) //                                  ( and "eedata"       )
(PID.TID 0000.0001) // =======================================================
(PID.TID 0000.0001)      nPx =    1 ; /* No. processes in X */
(PID.TID 0000.0001)      nPy =    1 ; /* No. processes in Y */
(PID.TID 0000.0001)      nSx =    6 ; /* No. tiles in X per process */
(PID.TID 0000.0001)      nSy =    1 ; /* No. tiles in Y per process */
(PID.TID 0000.0001)      sNx =   32 ; /* Tile size in X */
(PID.TID 0000.0001)      sNy =   32 ; /* Tile size in Y */
(PID.TID 0000.0001)      OLx =    2 ; /* Tile overlap distance in X */
(PID.TID 0000.0001)      OLy =    2 ; /* Tile overlap distance in Y */
(PID.TID 0000.0001)      nTx =    1 ; /* No. threads in X per process */
(PID.TID 0000.0001)      nTy =    1 ; /* No. threads in Y per process */
(PID.TID 0000.0001)       Nr =   20 ; /* No. levels in the vertical   */
(PID.TID 0000.0001)       Nx =  192 ; /* Total domain size in X ( = nPx*nSx*sNx ) */
(PID.TID 0000.0001)       Ny =   32 ; /* Total domain size in Y ( = nPy*nSy*sNy ) */
(PID.TID 0000.0001)   nTiles =    6 ; /* Total no. tiles per process ( = nSx*nSy ) */
(PID.TID 0000.0001)   nProcs =    1 ; /* Total no. processes ( = nPx*nPy ) */
(PID.TID 0000.0001) nThreads =    1 ; /* Total no. threads per process ( = nTx*nTy ) */
(PID.TID 0000.0001) usingMPI =    F ; /* Flag used to control whether MPI is in use */
(PID.TID 0000.0001)                   /*  note: To execute a program with MPI calls */
(PID.TID 0000.0001)                   /*  it must be launched appropriately e.g     */
(PID.TID 0000.0001)                   /*  "mpirun -np 64 ......"                    */
(PID.TID 0000.0001) useCoupler=    F ;/* Flag used to control communications with   */
(PID.TID 0000.0001)                   /*  other model components, through a coupler */
(PID.TID 0000.0001) debugMode =    F ; /* print debug msg. (sequence of S/R calls)  */
(PID.TID 0000.0001) printMapIncludesZeros=    F ; /* print zeros in Std.Output maps */
(PID.TID 0000.0001) maxLengthPrt1D=   65 /* maxLength of 1D array printed to StdOut */
(PID.TID 0000.0001) 
(PID.TID 0000.0001) // ======================================================
(PID.TID 0000.0001) // Mapping of tiles to threads
(PID.TID 0000.0001) // ======================================================
(PID.TID 0000.0001) // -o- Thread   1, tiles (   1:   6,   1:   1)
(PID.TID 0000.0001) 
(PID.TID 0000.0001) W2_READPARMS: file data.exch2 not found
(PID.TID 0000.0001) => use W2_EXCH2 default: regular 6-facets Cube
(PID.TID 0000.0001) W2_useE2ioLayOut=    T ;/* T: use Exch2 glob IO map; F: use model default */
(PID.TID 0000.0001) W2_mapIO        =  -1 ; /* select option for Exch2 global-IO map */
(PID.TID 0000.0001) W2_printMsg     =  -1 ; /* select option for printing information */
(PID.TID 0000.0001) ===== Start setting W2 TOPOLOGY:
(PID.TID 0000.0001)  write to log-file: w2_tile_topology.0000.log
(PID.TID 0000.0001) =====       setting W2 TOPOLOGY: Done
(PID.TID 0000.0001) 
(PID.TID 0000.0001)  INI_PARMS: opening model parameter file "data"
(PID.TID 0000.0001)  OPEN_COPY_DATA_FILE: opening file data
(PID.TID 0000.0001) // =======================================================
(PID.TID 0000.0001) // Parameter file "data"
(PID.TID 0000.0001) // =======================================================
(PID.TID 0000.0001) ># ====================
(PID.TID 0000.0001) ># | Model parameters |
(PID.TID 0000.0001) ># ====================
(PID.TID 0000.0001) >#
(PID.TID 0000.0001) ># Continuous equation parameters
(PID.TID 0000.0001) > &PARM01
(PID.TID 0000.0001) >#tRef=288.8,292.7,298.1,303.8,309.8,316.2,323.2,332.5,356.1,437.4,
(PID.TID 0000.0001) > tRef=286.0,288.0,290.0,292.0,295.0,298.0,301.0,304.0,307.0,310.0,
(PID.TID 0000.0001) >      313.0,316.0,319.5,323.0,327.5,332.0,343.0,356.0,396.0,440.0,
(PID.TID 0000.0001) >#sRef=1.0E-3,5.0E-4,1.E-4,5*1.E-6,1.E-8,1.E-9,
(PID.TID 0000.0001) > sRef=20*0.0,
(PID.TID 0000.0001) > viscAr=0.E1,
(PID.TID 0000.0001) > viscAh=0.E6,
(PID.TID 0000.0001) > viscA4=0.E17,
(PID.TID 0000.0001) > no_slip_sides=.FALSE.,
(PID.TID 0000.0001) > no_slip_bottom=.FALSE.,
(PID.TID 0000.0001) > diffKhT=0.E3,
(PID.TID 0000.0001) > diffKrT=0.,
(PID.TID 0000.0001) > diffK4T=0.E17,
(PID.TID 0000.0001) > diffKrS=0.E2,
(PID.TID 0000.0001) > diffKhS=0.E3,
(PID.TID 0000.0001) > diffK4S=0.E17,
(PID.TID 0000.0001) > buoyancyRelation='ATMOSPHERIC',
(PID.TID 0000.0001) > eosType='IDEALG',
(PID.TID 0000.0001) > atm_Rq=0.6078,
(PID.TID 0000.0001) >#Integr_GeoPot=2,
(PID.TID 0000.0001) > gravity=9.81,
(PID.TID 0000.0001) > rigidLid=.FALSE.,
(PID.TID 0000.0001) > implicitFreeSurface=.TRUE.,
(PID.TID 0000.0001) > exactConserv=.TRUE.,
(PID.TID 0000.0001) > uniformLin_PhiSurf=.FALSE.,
(PID.TID 0000.0001) > staggerTimeStep=.TRUE.,
(PID.TID 0000.0001) > readBinaryPrec=64,
(PID.TID 0000.0001) > writeBinaryPrec=64,
(PID.TID 0000.0001) > hFacMin=0.2,
(PID.TID 0000.0001) > nonlinFreeSurf=4,
(PID.TID 0000.0001) > select_rStar=2,
(PID.TID 0000.0001) > saltAdvScheme=3,
(PID.TID 0000.0001) > vectorInvariantMomentum=.TRUE.,
(PID.TID 0000.0001) >#- here are the new things:
(PID.TID 0000.0001) > useAbsVorticity=.TRUE.,
(PID.TID 0000.0001) > SadournyCoriolis=.TRUE.,
(PID.TID 0000.0001) > selectKEscheme=3,
(PID.TID 0000.0001) > /
(PID.TID 0000.0001) >
(PID.TID 0000.0001) ># Elliptic solver parameters
(PID.TID 0000.0001) > &PARM02
(PID.TID 0000.0001) > cg2dMaxIters=200,
(PID.TID 0000.0001) >#cg2dTargetResidual=1.E-12,
(PID.TID 0000.0001) > cg2dTargetResWunit=1.E-17,
(PID.TID 0000.0001) > /
(PID.TID 0000.0001) >
(PID.TID 0000.0001) ># Time stepping parameters
(PID.TID 0000.0001) > &PARM03
(PID.TID 0000.0001) > nIter0=0,
(PID.TID 0000.0001) > nTimeSteps=7,
(PID.TID 0000.0001) >#endTime=864000.0,
(PID.TID 0000.0001) > deltaT=120.0,
(PID.TID 0000.0001) > forcing_In_AB=.FALSE.,
(PID.TID 0000.0001) > abEps=0.1,
(PID.TID 0000.0001) > cAdjFreq=0.,
(PID.TID 0000.0001) > pChkptFreq=0.0,
(PID.TID 0000.0001) > ChkptFreq=0.0,
(PID.TID 0000.0001) > dumpFreq=0.0,
(PID.TID 0000.0001) > monitorFreq=1.,
(PID.TID 0000.0001) >#monitorFreq=2678400.,
(PID.TID 0000.0001) > taveFreq=0.0,
(PID.TID 0000.0001) > tave_lastiter=1.,
(PID.TID 0000.0001) ># for daily testing: to save disk space
(PID.TID 0000.0001) > writePickupAtEnd=.FALSE.,
(PID.TID 0000.0001) > /
(PID.TID 0000.0001) >
(PID.TID 0000.0001) ># Gridding parameters
(PID.TID 0000.0001) > &PARM04
(PID.TID 0000.0001) > usingCurvilinearGrid=.TRUE.,
(PID.TID 0000.0001) > horizGridFile='dxC1_dXYa',
(PID.TID 0000.0001) > radius_fromHorizGrid=6370.E3,
(PID.TID 0000.0001) > delR=20*5054.,
(PID.TID 0000.0001) > Ro_SeaLevel=101080.,
(PID.TID 0000.0001) > /
(PID.TID 0000.0001) >
(PID.TID 0000.0001) ># Input datasets
(PID.TID 0000.0001) > &PARM05
(PID.TID 0000.0001) >#topoFile='topo.cs.bin',
(PID.TID 0000.0001) > uVelInitFile='U.input.20Lev',
(PID.TID 0000.0001) > vVelInitFile='V.input.20Lev',
(PID.TID 0000.0001) > hydrogThetaFile='T.input.20Lev',
(PID.TID 0000.0001) > hydrogSaltFile='RH.input.20Lev',
(PID.TID 0000.0001) > /
(PID.TID 0000.0001) 
(PID.TID 0000.0001)  INI_PARMS ; starts to read PARM01
(PID.TID 0000.0001)  INI_PARMS ; read PARM01 : OK
(PID.TID 0000.0001)  INI_PARMS ; starts to read PARM02
(PID.TID 0000.0001)  INI_PARMS ; read PARM02 : OK
(PID.TID 0000.0001)  INI_PARMS ; starts to read PARM03
(PID.TID 0000.0001)  INI_PARMS ; read PARM03 : OK
(PID.TID 0000.0001)  INI_PARMS ; starts to read PARM04
(PID.TID 0000.0001)  INI_PARMS ; read PARM04 : OK
(PID.TID 0000.0001)  INI_PARMS ; starts to read PARM05
(PID.TID 0000.0001)  INI_PARMS ; read PARM05 : OK
(PID.TID 0000.0001)  INI_PARMS: finished reading file "data"
(PID.TID 0000.0001)  PACKAGES_BOOT: opening data.pkg
(PID.TID 0000.0001)  OPEN_COPY_DATA_FILE: opening file data.pkg
(PID.TID 0000.0001) // =======================================================
(PID.TID 0000.0001) // Parameter file "data.pkg"
(PID.TID 0000.0001) // =======================================================
(PID.TID 0000.0001) ># Packages
(PID.TID 0000.0001) > &PACKAGES
(PID.TID 0000.0001) > useFIZHI=.TRUE.,
(PID.TID 0000.0001) > useGRIDALT=.TRUE.,
(PID.TID 0000.0001) > useSHAP_FILT=.TRUE.,
(PID.TID 0000.0001) > useDIAGNOSTICS=.TRUE.,
(PID.TID 0000.0001) > useMNC=.TRUE.,
(PID.TID 0000.0001) > /
(PID.TID 0000.0001) 
(PID.TID 0000.0001)  PACKAGES_BOOT: finished reading data.pkg
(PID.TID 0000.0001)  MNC_READPARMS: opening file 'data.mnc'
(PID.TID 0000.0001)  OPEN_COPY_DATA_FILE: opening file data.mnc
(PID.TID 0000.0001) // =======================================================
(PID.TID 0000.0001) // Parameter file "data.mnc"
(PID.TID 0000.0001) // =======================================================
(PID.TID 0000.0001) ># Example "data.mnc" file
(PID.TID 0000.0001) ># Lines beginning "#" are comments
(PID.TID 0000.0001) > &MNC_01
(PID.TID 0000.0001) ># mnc_echo_gvtypes=.FALSE.,
(PID.TID 0000.0001) ># mnc_use_indir=.FALSE.,
(PID.TID 0000.0001) > mnc_use_outdir=.TRUE.,
(PID.TID 0000.0001) > mnc_outdir_str='mnc_test_',
(PID.TID 0000.0001) ># mnc_outdir_date=.TRUE.,
(PID.TID 0000.0001) > monitor_mnc=.FALSE.,
(PID.TID 0000.0001) > pickup_write_mnc=.FALSE.,
(PID.TID 0000.0001) > pickup_read_mnc=.FALSE.,
(PID.TID 0000.0001) > /
(PID.TID 0000.0001) ># Note: Some systems use & as the
(PID.TID 0000.0001) ># namelist terminator. Other systems
(PID.TID 0000.0001) ># use a / character (as shown here).
(PID.TID 0000.0001) 
(PID.TID 0000.0001)  MNC_READPARMS: finished reading data.mnc
(PID.TID 0000.0001)  SHAP_FILT_READPARMS: opening data.shap
(PID.TID 0000.0001)  OPEN_COPY_DATA_FILE: opening file data.shap
(PID.TID 0000.0001) // =======================================================
(PID.TID 0000.0001) // Parameter file "data.shap"
(PID.TID 0000.0001) // =======================================================
(PID.TID 0000.0001) ># Shapiro Filter parameters
(PID.TID 0000.0001) > &SHAP_PARM01
(PID.TID 0000.0001) > shap_filt_uvStar=.FALSE.,
(PID.TID 0000.0001) > shap_filt_TrStagg=.TRUE.,
(PID.TID 0000.0001) > Shap_funct=2,
(PID.TID 0000.0001) > nShapT=4,
(PID.TID 0000.0001) > nShapUV=4,
(PID.TID 0000.0001) > nShapTrPhys=4,
(PID.TID 0000.0001) > nShapUVPhys=4,
(PID.TID 0000.0001) >#Shap_TrLength=115000.,
(PID.TID 0000.0001) >#Shap_uvLength=110000.,
(PID.TID 0000.0001) >#-- here is the new value to add:
(PID.TID 0000.0001) > Shap_uvLength=-1.,
(PID.TID 0000.0001) > Shap_Trtau=5400.,
(PID.TID 0000.0001) > Shap_uvtau=1800.,
(PID.TID 0000.0001) > /
(PID.TID 0000.0001) 
(PID.TID 0000.0001)  SHAP_FILT_READPARMS: finished reading data.shap
(PID.TID 0000.0001) Shap_funct =   /* select Shapiro filter function */
(PID.TID 0000.0001)                       2
(PID.TID 0000.0001)     ;
(PID.TID 0000.0001) nShapT =   /* power of Shapiro filter for Temperat */
(PID.TID 0000.0001)                       4
(PID.TID 0000.0001)     ;
(PID.TID 0000.0001) nShapS =   /* power of Shapiro filter for Salinity */
(PID.TID 0000.0001)                       4
(PID.TID 0000.0001)     ;
(PID.TID 0000.0001) nShapUV =   /* power of Shapiro filter for momentum */
(PID.TID 0000.0001)                       4
(PID.TID 0000.0001)     ;
(PID.TID 0000.0001) shap_filt_uvStar = /* apply filter before Press. Solver */
(PID.TID 0000.0001)                   F
(PID.TID 0000.0001)     ;
(PID.TID 0000.0001) shap_filt_TrStagg = /* filter T,S before calc PhiHyd (staggerTimeStep) */
(PID.TID 0000.0001)                   T
(PID.TID 0000.0001)     ;
(PID.TID 0000.0001) Shap_alwaysExchUV = /* always exch(U,V)    nShapUV times*/
(PID.TID 0000.0001)                   F
(PID.TID 0000.0001)     ;
(PID.TID 0000.0001) Shap_alwaysExchTr = /* always exch(Tracer) nShapTr times*/
(PID.TID 0000.0001)                   F
(PID.TID 0000.0001)     ;
(PID.TID 0000.0001) nShapTrPhys =   /* power of physical-space filter (Tracer) */
(PID.TID 0000.0001)                       4
(PID.TID 0000.0001)     ;
(PID.TID 0000.0001) nShapUVPhys =   /* power of physical-space filter (Momentum) */
(PID.TID 0000.0001)                       4
(PID.TID 0000.0001)     ;
(PID.TID 0000.0001) Shap_Trtau =   /* time scale of Shapiro filter (Tracer) */
(PID.TID 0000.0001)                 5.400000000000000E+03
(PID.TID 0000.0001)     ;
(PID.TID 0000.0001) Shap_TrLength =   /* Length scale of Shapiro filter (Tracer) */
(PID.TID 0000.0001)                 0.000000000000000E+00
(PID.TID 0000.0001)     ;
(PID.TID 0000.0001) Shap_uvtau =   /* time scale of Shapiro filter (Momentum) */
(PID.TID 0000.0001)                 1.800000000000000E+03
(PID.TID 0000.0001)     ;
(PID.TID 0000.0001) Shap_uvLength =   /* Length scale of Shapiro filter (Momentum) */
(PID.TID 0000.0001)                -1.000000000000000E+00
(PID.TID 0000.0001)     ;
(PID.TID 0000.0001) Shap_noSlip =  /* No-slip parameter (0=Free-slip ; 1=No-slip)*/
(PID.TID 0000.0001)                 0.000000000000000E+00
(PID.TID 0000.0001)     ;
(PID.TID 0000.0001) Shap_diagFreq =   /* Frequency^-1 for diagnostic output (s)*/
(PID.TID 0000.0001)                 0.000000000000000E+00
(PID.TID 0000.0001)     ;
(PID.TID 0000.0001)  FIZHI_READPARMS: opening data.fizhi
(PID.TID 0000.0001)  OPEN_COPY_DATA_FILE: opening file data.fizhi
(PID.TID 0000.0001) // =======================================================
(PID.TID 0000.0001) // Parameter file "data.fizhi"
(PID.TID 0000.0001) // =======================================================
(PID.TID 0000.0001) ># Fizhi Parameters
(PID.TID 0000.0001) > &fizhi_list
(PID.TID 0000.0001) > nhmsbegin=000000,
(PID.TID 0000.0001) > nymdbegin=20040321,
(PID.TID 0000.0001) > runlength=0.003,
(PID.TID 0000.0001) > /
(PID.TID 0000.0001) 
(PID.TID 0000.0001)  CHANGING NUMBER OF MODEL TIMESTEPS TO        15
(PID.TID 0000.0001)  CHANGING END TIME TO     1800.00
   Begin Date     20040321    Begin Time            0
 Current Date     20040321  Current Time            0
(PID.TID 0000.0001)  DIAGNOSTICS_READPARMS: opening data.diagnostics
(PID.TID 0000.0001)  OPEN_COPY_DATA_FILE: opening file data.diagnostics
(PID.TID 0000.0001) // =======================================================
(PID.TID 0000.0001) // Parameter file "data.diagnostics"
(PID.TID 0000.0001) // =======================================================
(PID.TID 0000.0001) ># Diagnostic Package Choices
(PID.TID 0000.0001) >#--------------------
(PID.TID 0000.0001) >#  dumpAtLast (logical): always write output at the end of simulation (default=F)
(PID.TID 0000.0001) >#  diag_mnc   (logical): write to NetCDF files (default=useMNC)
(PID.TID 0000.0001) >#--for each output-stream:
(PID.TID 0000.0001) >#  fileName(n) : prefix of the output file name (max 80c long) for outp.stream n
(PID.TID 0000.0001) >#  frequency(n):< 0 : write snap-shot output every |frequency| seconds
(PID.TID 0000.0001) >#               > 0 : write time-average output every frequency seconds
(PID.TID 0000.0001) >#  timePhase(n)     : write at time = timePhase + multiple of |frequency|
(PID.TID 0000.0001) >#    averagingFreq  : frequency (in s) for periodic averaging interval
(PID.TID 0000.0001) >#    averagingPhase : phase     (in s) for periodic averaging interval
(PID.TID 0000.0001) >#    repeatCycle    : number of averaging intervals in 1 cycle
(PID.TID 0000.0001) >#  levels(:,n) : list of levels to write to file (Notes: declared as REAL)
(PID.TID 0000.0001) >#                when this entry is missing, select all common levels of this list
(PID.TID 0000.0001) >#  fields(:,n) : list of selected diagnostics fields (8.c) in outp.stream n
(PID.TID 0000.0001) >#                (see "available_diagnostics.log" file for the full list of diags)
(PID.TID 0000.0001) >#  missing_value(n) : missing value for real-type fields in output file "n"
(PID.TID 0000.0001) >#  fileFlags(n)     : specific code (8c string) for output file "n"
(PID.TID 0000.0001) >#--------------------
(PID.TID 0000.0001) > &DIAGNOSTICS_LIST
(PID.TID 0000.0001) >      diag_mnc = .TRUE.,
(PID.TID 0000.0001) >    dumpAtLast = .TRUE.,
(PID.TID 0000.0001) >#--
(PID.TID 0000.0001) >  fields(1:27,1) = 'RADSWT  ','OSR     ','OLR     ','PLALBEDO','CLDFRC  ','PREACC  ',
(PID.TID 0000.0001) >                   'PRECON  ','EVAP    ','RADSWG  ','ALBNIRDF','ALBVISDF','LWGDOWN ',
(PID.TID 0000.0001) >                   'LWGUP   ','EFLUX   ','HFLUX   ','T2M     ','Q2M     ','UFLUX   ',
(PID.TID 0000.0001) >                   'VFLUX   ','U10M    ','V10M    ','PS      ','OSRCLR  ','OLRCLR  ',
(PID.TID 0000.0001) >                   'SWGCLR  ','LWGCLR  ','RSURF   ',
(PID.TID 0000.0001) >   levels(1,1) = 1.,
(PID.TID 0000.0001) >   fileName(1) = 'SHfields',
(PID.TID 0000.0001) >  frequency(1) = 00.06,
(PID.TID 0000.0001) >
(PID.TID 0000.0001) >  fields(1:8,2)  = 'UVEL    ','VVEL    ','PHIHYD  ','WVEL    ','SALT    ','RELHUM  ',
(PID.TID 0000.0001) >                   'RCENTER ','THETA   ',
(PID.TID 0000.0001) >    fileFlags(2) = ' P      ',
(PID.TID 0000.0001) >  levels(1:17,2) = 1000.E+2, 925.E+2, 850.E+2, 700.E+2, 600.E+2, 500.E+2,
(PID.TID 0000.0001) >                    400.E+2, 300.E+2, 250.E+2, 200.E+2, 150.E+2, 100.E+2,
(PID.TID 0000.0001) >                     70.E+2,  50.E+2,  30.E+2,  20.E+2,  10.E+2,
(PID.TID 0000.0001) >   fileName(2) = 'MLfields',
(PID.TID 0000.0001) >  frequency(2) = -00.06,
(PID.TID 0000.0001) >
(PID.TID 0000.0001) >  fields(1:17,3) = 'UVELSQ  ','VVELSQ  ','THETASQ ','WVELSQ  ','PHIHYDSQ','SALTSQ  ',
(PID.TID 0000.0001) >                   'UV_VEL_C','WU_VEL  ','WV_VEL  ','VVELTH  ','WVELTH  ','VVELSLT ',
(PID.TID 0000.0001) >                   'WVELSLT ','UVELSLT ','UVELTH  ','UVELPHI ','VVELPHI ',
(PID.TID 0000.0001) >    fileFlags(3) = ' P      ',
(PID.TID 0000.0001) >  levels(1:17,3) = 1000.E+2, 925.E+2, 850.E+2, 700.E+2, 600.E+2, 500.E+2,
(PID.TID 0000.0001) >                    400.E+2, 300.E+2, 250.E+2, 200.E+2, 150.E+2, 100.E+2,
(PID.TID 0000.0001) >                     70.E+2,  50.E+2,  30.E+2,  20.E+2,  10.E+2,
(PID.TID 0000.0001) >   fileName(3) = 'MFfields',
(PID.TID 0000.0001) >  frequency(3) = -00.06,
(PID.TID 0000.0001) >
(PID.TID 0000.0001) ># need to add RSURF output with same freq as other interpolated diagnostics
(PID.TID 0000.0001) >  fields(1,5)    = 'RSURF   ',
(PID.TID 0000.0001) >   fileName(5) = 'snapshot_ps',
(PID.TID 0000.0001) >  frequency(5) = -00.06,
(PID.TID 0000.0001) ># fields(1:9,4)  = 'RADSW   ','RADLW   ','TURBT   ','MOISTT  ','TURBQ   ','MOISTQ  ',
(PID.TID 0000.0001) >#                  'TURBU   ','TURBV   ','DPPHYS  ',
(PID.TID 0000.0001) ># levels(1:28,4) = 1., 2., 3., 4., 5., 6., 7., 8., 9.,10.,11.,12.,13.,14.,
(PID.TID 0000.0001) >#                 15.,16.,17.,18.,19.,20.,21.,22.,23.,24.,25.,26.,27.,28.,
(PID.TID 0000.0001) >#  fileName(4) = 'PFfields',
(PID.TID 0000.0001) ># frequency(4) = -00.06,
(PID.TID 0000.0001) > /
(PID.TID 0000.0001) >
(PID.TID 0000.0001) >#--------------------
(PID.TID 0000.0001) ># Parameter for Diagnostics of per level statistics:
(PID.TID 0000.0001) >#--------------------
(PID.TID 0000.0001) >#  diagSt_mnc (logical): write stat-diags to NetCDF files (default=diag_mnc)
(PID.TID 0000.0001) >#  diagSt_regMaskFile : file containing the region-mask to read-in
(PID.TID 0000.0001) >#  nSetRegMskFile   : number of region-mask sets within the region-mask file
(PID.TID 0000.0001) >#  set_regMask(i)   : region-mask set-index that identifies the region "i"
(PID.TID 0000.0001) >#  val_regMask(i)   : region "i" identifier value in the region mask
(PID.TID 0000.0001) >#--for each output-stream:
(PID.TID 0000.0001) >#  stat_fName(n) : prefix of the output file name (max 80c long) for outp.stream n
(PID.TID 0000.0001) >#  stat_freq(n):< 0 : write snap-shot output every |stat_freq| seconds
(PID.TID 0000.0001) >#               > 0 : write time-average output every stat_freq seconds
(PID.TID 0000.0001) >#  stat_phase(n)    : write at time = stat_phase + multiple of |stat_freq|
(PID.TID 0000.0001) >#  stat_region(:,n) : list of "regions" (default: 1 region only=global)
(PID.TID 0000.0001) >#  stat_fields(:,n) : list of selected diagnostics fields (8.c) in outp.stream n
(PID.TID 0000.0001) >#                (see "available_diagnostics.log" file for the full list of diags)
(PID.TID 0000.0001) >#--------------------
(PID.TID 0000.0001) > &DIAG_STATIS_PARMS
(PID.TID 0000.0001) > stat_fields(1:26,1) = 'RADSWT  ','OSR     ','OLR     ','PLALBEDO','CLDFRC  ','PREACC  ',
(PID.TID 0000.0001) >                       'PRECON  ','EVAP    ','RADSWG  ','ALBNIRDF','ALBVISDF','LWGDOWN ',
(PID.TID 0000.0001) >                       'LWGUP   ','EFLUX   ','HFLUX   ','T2M     ','Q2M     ','UFLUX   ',
(PID.TID 0000.0001) >                       'VFLUX   ','U10M    ','V10M    ','PS      ','OSRCLR  ','OLRCLR  ',
(PID.TID 0000.0001) >                       'SWGCLR  ','LWGCLR  ',
(PID.TID 0000.0001) >  stat_fName(1) = 'GTfields',
(PID.TID 0000.0001) >   stat_freq(1) = 1.00,
(PID.TID 0000.0001) >  stat_phase(1) = 0.,
(PID.TID 0000.0001) > /
(PID.TID 0000.0001) 
(PID.TID 0000.0001) S/R DIAGNOSTICS_READPARMS, read namelist "diagnostics_list": start
(PID.TID 0000.0001) S/R DIAGNOSTICS_READPARMS, read namelist "diagnostics_list": OK
(PID.TID 0000.0001) S/R DIAGNOSTICS_READPARMS, read namelist "DIAG_STATIS_PARMS": start
(PID.TID 0000.0001) S/R DIAGNOSTICS_READPARMS, read namelist "DIAG_STATIS_PARMS": OK
(PID.TID 0000.0001)  DIAGNOSTICS_READPARMS: global parameter summary:
(PID.TID 0000.0001)  dumpAtLast = /* always write time-ave diags at the end */
(PID.TID 0000.0001)                   T
(PID.TID 0000.0001)     ;
(PID.TID 0000.0001)  diag_mnc =   /* write NetCDF output files */
(PID.TID 0000.0001)                   T
(PID.TID 0000.0001)     ;
(PID.TID 0000.0001)  useMissingValue = /* put MissingValue where mask = 0 */
(PID.TID 0000.0001)                   F
(PID.TID 0000.0001)     ;
(PID.TID 0000.0001)  diagCG_maxIters = /* max number of iters in diag_cg2d */
(PID.TID 0000.0001)                     200
(PID.TID 0000.0001)     ;
(PID.TID 0000.0001)  diagCG_resTarget = /* residual target for diag_cg2d */
(PID.TID 0000.0001)                 1.000000000000000E-07
(PID.TID 0000.0001)     ;
(PID.TID 0000.0001) -----------------------------------------------------
(PID.TID 0000.0001)  DIAGNOSTICS_READPARMS: active diagnostics summary:
(PID.TID 0000.0001) -----------------------------------------------------
(PID.TID 0000.0001) Creating Output Stream: SHfields
(PID.TID 0000.0001) Output Frequency:          0.060000 ; Phase:           0.000000
(PID.TID 0000.0001)  Averaging Freq.:          0.060000 , Phase:           0.000000 , Cycle:   1
(PID.TID 0000.0001)  missing value:  1.234567000000E+05 ; for integers:   123456789
(PID.TID 0000.0001)  Levels:       1.
(PID.TID 0000.0001)  Fields:    RADSWT   OSR      OLR      PLALBEDO CLDFRC   PREACC   PRECON   EVAP     RADSWG   ALBNIRDF
(PID.TID 0000.0001)  Fields:    ALBVISDF LWGDOWN  LWGUP    EFLUX    HFLUX    T2M      Q2M      UFLUX    VFLUX    U10M
(PID.TID 0000.0001)  Fields:    V10M     PS       OSRCLR   OLRCLR   SWGCLR   LWGCLR   RSURF
(PID.TID 0000.0001) Creating Output Stream: MLfields
(PID.TID 0000.0001) Output Frequency:         -0.060000 ; Phase:           0.030000
(PID.TID 0000.0001)  Averaging Freq.:          0.000000 , Phase:           0.000000 , Cycle:   1
(PID.TID 0000.0001)  missing value:  1.234567000000E+05 ; for integers:   123456789 ; F-Flags=" P      "
(PID.TID 0000.0001)  interp:   1.000E+05 9.250E+04 8.500E+04 7.000E+04 6.000E+04 5.000E+04 4.000E+04 3.000E+04 2.500E+04 2.000E+04
(PID.TID 0000.0001)  interp:   1.500E+04 1.000E+04 7.000E+03 5.000E+03 3.000E+03 2.000E+03 1.000E+03
(PID.TID 0000.0001)  Fields:    UVEL     VVEL     PHIHYD   WVEL     SALT     RELHUM   RCENTER  THETA
(PID.TID 0000.0001) Creating Output Stream: MFfields
(PID.TID 0000.0001) Output Frequency:         -0.060000 ; Phase:           0.030000
(PID.TID 0000.0001)  Averaging Freq.:          0.000000 , Phase:           0.000000 , Cycle:   1
(PID.TID 0000.0001)  missing value:  1.234567000000E+05 ; for integers:   123456789 ; F-Flags=" P      "
(PID.TID 0000.0001)  interp:   1.000E+05 9.250E+04 8.500E+04 7.000E+04 6.000E+04 5.000E+04 4.000E+04 3.000E+04 2.500E+04 2.000E+04
(PID.TID 0000.0001)  interp:   1.500E+04 1.000E+04 7.000E+03 5.000E+03 3.000E+03 2.000E+03 1.000E+03
(PID.TID 0000.0001)  Fields:    UVELSQ   VVELSQ   THETASQ  WVELSQ   PHIHYDSQ SALTSQ   UV_VEL_C WU_VEL   WV_VEL   VVELTH
(PID.TID 0000.0001)  Fields:    WVELTH   VVELSLT  WVELSLT  UVELSLT  UVELTH   UVELPHI  VVELPHI
(PID.TID 0000.0001) Creating Output Stream: snapshot_ps
(PID.TID 0000.0001) Output Frequency:         -0.060000 ; Phase:           0.030000
(PID.TID 0000.0001)  Averaging Freq.:          0.000000 , Phase:           0.000000 , Cycle:   1
(PID.TID 0000.0001)  missing value:  1.234567000000E+05 ; for integers:   123456789
(PID.TID 0000.0001)  Levels:    will be set later
(PID.TID 0000.0001)  Fields:    RSURF
(PID.TID 0000.0001) -----------------------------------------------------
(PID.TID 0000.0001)  DIAGNOSTICS_READPARMS: statistics diags. summary:
(PID.TID 0000.0001) Creating Stats. Output Stream: GTfields
(PID.TID 0000.0001) Output Frequency:          1.000000 ; Phase:           0.000000
(PID.TID 0000.0001)  Regions:   0
(PID.TID 0000.0001)  Fields:    RADSWT   OSR      OLR      PLALBEDO CLDFRC   PREACC   PRECON   EVAP     RADSWG   ALBNIRDF
(PID.TID 0000.0001)  Fields:    ALBVISDF LWGDOWN  LWGUP    EFLUX    HFLUX    T2M      Q2M      UFLUX    VFLUX    U10M
(PID.TID 0000.0001)  Fields:    V10M     PS       OSRCLR   OLRCLR   SWGCLR   LWGCLR
(PID.TID 0000.0001) -----------------------------------------------------
(PID.TID 0000.0001) 
(PID.TID 0000.0001) SET_PARMS: done
(PID.TID 0000.0001) Enter INI_VERTICAL_GRID: setInterFDr=    T ; setCenterDr=    F
(PID.TID 0000.0001) tile:   1 ; Read from file dxC1_dXYa.face001.bin
(PID.TID 0000.0001)   => xC yC dxF dyF rA xG yG dxV dyU rAz dxC dyC rAw rAs dxG dyG AngleCS AngleSN
(PID.TID 0000.0001) tile:   2 ; Read from file dxC1_dXYa.face002.bin
(PID.TID 0000.0001)   => xC yC dxF dyF rA xG yG dxV dyU rAz dxC dyC rAw rAs dxG dyG AngleCS AngleSN
(PID.TID 0000.0001) tile:   3 ; Read from file dxC1_dXYa.face003.bin
(PID.TID 0000.0001)   => xC yC dxF dyF rA xG yG dxV dyU rAz dxC dyC rAw rAs dxG dyG AngleCS AngleSN
(PID.TID 0000.0001) tile:   4 ; Read from file dxC1_dXYa.face004.bin
(PID.TID 0000.0001)   => xC yC dxF dyF rA xG yG dxV dyU rAz dxC dyC rAw rAs dxG dyG AngleCS AngleSN
(PID.TID 0000.0001) tile:   5 ; Read from file dxC1_dXYa.face005.bin
(PID.TID 0000.0001)   => xC yC dxF dyF rA xG yG dxV dyU rAz dxC dyC rAw rAs dxG dyG AngleCS AngleSN
(PID.TID 0000.0001) tile:   6 ; Read from file dxC1_dXYa.face006.bin
(PID.TID 0000.0001)   => xC yC dxF dyF rA xG yG dxV dyU rAz dxC dyC rAw rAs dxG dyG AngleCS AngleSN
(PID.TID 0000.0001) %MON XC_max                       =   1.7854351589505E+02
(PID.TID 0000.0001) %MON XC_min                       =  -1.7854351589505E+02
(PID.TID 0000.0001) %MON XC_mean                      =  -4.6999441375798E-15
(PID.TID 0000.0001) %MON XC_sd                        =   1.0355545336287E+02
(PID.TID 0000.0001) %MON XG_max                       =   1.8000000000000E+02
(PID.TID 0000.0001) %MON XG_min                       =  -1.7708797161002E+02
(PID.TID 0000.0001) %MON XG_mean                      =   1.8603515625000E+00
(PID.TID 0000.0001) %MON XG_sd                        =   1.0357130300504E+02
(PID.TID 0000.0001) %MON DXC_max                      =   3.2375185836900E+05
(PID.TID 0000.0001) %MON DXC_min                      =   1.1353730006923E+05
(PID.TID 0000.0001) %MON DXC_mean                     =   2.8606102525036E+05
(PID.TID 0000.0001) %MON DXC_sd                       =   3.4020997630307E+04
(PID.TID 0000.0001) %MON DXF_max                      =   3.2369947500827E+05
(PID.TID 0000.0001) %MON DXF_min                      =   1.2020820513318E+05
(PID.TID 0000.0001) %MON DXF_mean                     =   2.8605437324820E+05
(PID.TID 0000.0001) %MON DXF_sd                       =   3.4050524252539E+04
(PID.TID 0000.0001) %MON DXG_max                      =   3.2375195872773E+05
(PID.TID 0000.0001) %MON DXG_min                      =   1.0098378008791E+05
(PID.TID 0000.0001) %MON DXG_mean                     =   2.8603818508931E+05
(PID.TID 0000.0001) %MON DXG_sd                       =   3.4140406908005E+04
(PID.TID 0000.0001) %MON DXV_max                      =   3.2380418162750E+05
(PID.TID 0000.0001) %MON DXV_min                      =   8.0152299824136E+04
(PID.TID 0000.0001) %MON DXV_mean                     =   2.8603970633619E+05
(PID.TID 0000.0001) %MON DXV_sd                       =   3.4145142117723E+04
(PID.TID 0000.0001) %MON YC_max                       =   8.7940663871962E+01
(PID.TID 0000.0001) %MON YC_min                       =  -8.7940663871962E+01
(PID.TID 0000.0001) %MON YC_mean                      =   0.0000000000000E+00
(PID.TID 0000.0001) %MON YC_sd                        =   3.8676242969072E+01
(PID.TID 0000.0001) %MON YG_max                       =   9.0000000000000E+01
(PID.TID 0000.0001) %MON YG_min                       =  -9.0000000000000E+01
(PID.TID 0000.0001) %MON YG_mean                      =  -1.1842378929335E-15
(PID.TID 0000.0001) %MON YG_sd                        =   3.8676895860710E+01
(PID.TID 0000.0001) %MON DYC_max                      =   3.2375185836900E+05
(PID.TID 0000.0001) %MON DYC_min                      =   1.1353730006923E+05
(PID.TID 0000.0001) %MON DYC_mean                     =   2.8606102525036E+05
(PID.TID 0000.0001) %MON DYC_sd                       =   3.4020997630307E+04
(PID.TID 0000.0001) %MON DYF_max                      =   3.2369947500827E+05
(PID.TID 0000.0001) %MON DYF_min                      =   1.2020820513318E+05
(PID.TID 0000.0001) %MON DYF_mean                     =   2.8605437324820E+05
(PID.TID 0000.0001) %MON DYF_sd                       =   3.4050524252539E+04
(PID.TID 0000.0001) %MON DYG_max                      =   3.2375195872773E+05
(PID.TID 0000.0001) %MON DYG_min                      =   1.0098378008791E+05
(PID.TID 0000.0001) %MON DYG_mean                     =   2.8603818508931E+05
(PID.TID 0000.0001) %MON DYG_sd                       =   3.4140406908005E+04
(PID.TID 0000.0001) %MON DYU_max                      =   3.2380418162750E+05
(PID.TID 0000.0001) %MON DYU_min                      =   8.0152299824136E+04
(PID.TID 0000.0001) %MON DYU_mean                     =   2.8603970633619E+05
(PID.TID 0000.0001) %MON DYU_sd                       =   3.4145142117723E+04
(PID.TID 0000.0001) %MON RA_max                       =   1.0474757731659E+11
(PID.TID 0000.0001) %MON RA_min                       =   1.5497867056722E+10
(PID.TID 0000.0001) %MON RA_mean                      =   8.2985711332657E+10
(PID.TID 0000.0001) %MON RA_sd                        =   1.7448591913787E+10
(PID.TID 0000.0001) %MON RAW_max                      =   1.0481529828871E+11
(PID.TID 0000.0001) %MON RAW_min                      =   1.1465425741966E+10
(PID.TID 0000.0001) %MON RAW_mean                     =   8.2985711332657E+10
(PID.TID 0000.0001) %MON RAW_sd                       =   1.7503889570793E+10
(PID.TID 0000.0001) %MON RAS_max                      =   1.0481529828871E+11
(PID.TID 0000.0001) %MON RAS_min                      =   1.1465425741966E+10
(PID.TID 0000.0001) %MON RAS_mean                     =   8.2985711332657E+10
(PID.TID 0000.0001) %MON RAS_sd                       =   1.7503889570793E+10
(PID.TID 0000.0001) %MON RAZ_max                      =   1.0484349334619E+11
(PID.TID 0000.0001) %MON RAZ_min                      =   8.8317900612505E+09
(PID.TID 0000.0001) %MON RAZ_mean                     =   8.2992246709235E+10
(PID.TID 0000.0001) %MON RAZ_sd                       =   1.7482297311044E+10
(PID.TID 0000.0001) %MON AngleCS_max                  =   9.9999994756719E-01
(PID.TID 0000.0001) %MON AngleCS_min                  =  -9.9968286884824E-01
(PID.TID 0000.0001) %MON AngleCS_mean                 =   3.3078922539000E-01
(PID.TID 0000.0001) %MON AngleCS_sd                   =   6.2496278958502E-01
(PID.TID 0000.0001) %MON AngleSN_max                  =   9.9968286884824E-01
(PID.TID 0000.0001) %MON AngleSN_min                  =  -9.9999994756719E-01
(PID.TID 0000.0001) %MON AngleSN_mean                 =  -3.3078922539000E-01
(PID.TID 0000.0001) %MON AngleSN_sd                   =   6.2496278958502E-01
(PID.TID 0000.0001) 
(PID.TID 0000.0001) SET_REF_STATE: PhiRef/g [m] at level Center (integer)
(PID.TID 0000.0001)                      and at level Interface (half-int.) :
(PID.TID 0000.0001)  K=  0.5  ;  r=       101080.0  ;  phiRef/g=        0.000
(PID.TID 0000.0001)  K=  1.0  ;  r=        98553.0  ;  phiRef/g=      211.618
(PID.TID 0000.0001)  K=  1.5  ;  r=        96026.0  ;  phiRef/g=      429.193
(PID.TID 0000.0001)  K=  2.0  ;  r=        93499.0  ;  phiRef/g=      648.289
(PID.TID 0000.0001)  K=  2.5  ;  r=        90972.0  ;  phiRef/g=      876.016
(PID.TID 0000.0001)  K=  3.0  ;  r=        88445.0  ;  phiRef/g=     1105.324
(PID.TID 0000.0001)  K=  3.5  ;  r=        85918.0  ;  phiRef/g=     1344.193
(PID.TID 0000.0001)  K=  4.0  ;  r=        83391.0  ;  phiRef/g=     1584.709
(PID.TID 0000.0001)  K=  4.5  ;  r=        80864.0  ;  phiRef/g=     1835.875
(PID.TID 0000.0001)  K=  5.0  ;  r=        78337.0  ;  phiRef/g=     2089.621
(PID.TID 0000.0001)  K=  5.5  ;  r=        75810.0  ;  phiRef/g=     2355.346
(PID.TID 0000.0001)  K=  6.0  ;  r=        73283.0  ;  phiRef/g=     2623.773
(PID.TID 0000.0001)  K=  6.5  ;  r=        70756.0  ;  phiRef/g=     2905.769
(PID.TID 0000.0001)  K=  7.0  ;  r=        68229.0  ;  phiRef/g=     3190.604
(PID.TID 0000.0001)  K=  7.5  ;  r=        65702.0  ;  phiRef/g=     3490.936
(PID.TID 0000.0001)  K=  8.0  ;  r=        63175.0  ;  phiRef/g=     3794.260
(PID.TID 0000.0001)  K=  8.5  ;  r=        60648.0  ;  phiRef/g=     4115.449
(PID.TID 0000.0001)  K=  9.0  ;  r=        58121.0  ;  phiRef/g=     4439.808
(PID.TID 0000.0001)  K=  9.5  ;  r=        55594.0  ;  phiRef/g=     4784.988
(PID.TID 0000.0001)  K= 10.0  ;  r=        53067.0  ;  phiRef/g=     5133.542
(PID.TID 0000.0001)  K= 10.5  ;  r=        50540.0  ;  phiRef/g=     5506.684
(PID.TID 0000.0001)  K= 11.0  ;  r=        48013.0  ;  phiRef/g=     5883.438
(PID.TID 0000.0001)  K= 11.5  ;  r=        45486.0  ;  phiRef/g=     6289.688
(PID.TID 0000.0001)  K= 12.0  ;  r=        42959.0  ;  phiRef/g=     6699.831
(PID.TID 0000.0001)  K= 12.5  ;  r=        40432.0  ;  phiRef/g=     7146.048
(PID.TID 0000.0001)  K= 13.0  ;  r=        37905.0  ;  phiRef/g=     7597.208
(PID.TID 0000.0001)  K= 13.5  ;  r=        35378.0  ;  phiRef/g=     8093.639
(PID.TID 0000.0001)  K= 14.0  ;  r=        32851.0  ;  phiRef/g=     8595.509
(PID.TID 0000.0001)  K= 14.5  ;  r=        30324.0  ;  phiRef/g=     9156.007
(PID.TID 0000.0001)  K= 15.0  ;  r=        27797.0  ;  phiRef/g=     9724.314
(PID.TID 0000.0001)  K= 15.5  ;  r=        25270.0  ;  phiRef/g=    10372.073
(PID.TID 0000.0001)  K= 16.0  ;  r=        22743.0  ;  phiRef/g=    11028.733
(PID.TID 0000.0001)  K= 16.5  ;  r=        20216.0  ;  phiRef/g=    11799.753
(PID.TID 0000.0001)  K= 17.0  ;  r=        17689.0  ;  phiRef/g=    12596.319
(PID.TID 0000.0001)  K= 17.5  ;  r=        15162.0  ;  phiRef/g=    13577.072
(PID.TID 0000.0001)  K= 18.0  ;  r=        12635.0  ;  phiRef/g=    14594.997
(PID.TID 0000.0001)  K= 18.5  ;  r=        10108.0  ;  phiRef/g=    15964.899
(PID.TID 0000.0001)  K= 19.0  ;  r=         7581.0  ;  phiRef/g=    17488.721
(PID.TID 0000.0001)  K= 19.5  ;  r=         5054.0  ;  phiRef/g=    20101.180
(PID.TID 0000.0001)  K= 20.0  ;  r=         2527.0  ;  phiRef/g=    23003.912
(PID.TID 0000.0001)  K= 20.5  ;  r=            0.0  ;  phiRef/g=    38748.049
(PID.TID 0000.0001) // =======================================================
(PID.TID 0000.0001) // Field Model R_low (ini_masks_etc)
(PID.TID 0000.0001) // CMIN =          1.000000000000000E+32
(PID.TID 0000.0001) // CMAX =         -1.000000000000000E+32
(PID.TID 0000.0001) // CINT =          0.000000000000000E+00
(PID.TID 0000.0001) // SYMBOLS (CMIN->CMAX): -abcdefghijklmnopqrstuvwxyz+
(PID.TID 0000.0001) //                  0.0: .
(PID.TID 0000.0001) // RANGE I (Lo:Hi:Step):(    -1:   194:     1)
(PID.TID 0000.0001) // RANGE J (Lo:Hi:Step):(    34:    -1:    -1)
(PID.TID 0000.0001) // RANGE K (Lo:Hi:Step):(   1:   1:   1)
(PID.TID 0000.0001) // =======================================================
(PID.TID 0000.0001) // =======================================================
(PID.TID 0000.0001) // END OF FIELD                                          =
(PID.TID 0000.0001) // =======================================================
(PID.TID 0000.0001) 
(PID.TID 0000.0001) // =======================================================
(PID.TID 0000.0001) // Field Model Ro_surf (ini_masks_etc)
(PID.TID 0000.0001) // CMIN =          1.010800000000000E+05
(PID.TID 0000.0001) // CMAX =          1.010800000000000E+05
(PID.TID 0000.0001) // CINT =          0.000000000000000E+00
(PID.TID 0000.0001) // SYMBOLS (CMIN->CMAX): -abcdefghijklmnopqrstuvwxyz+
(PID.TID 0000.0001) //                  0.0: .
(PID.TID 0000.0001) // RANGE I (Lo:Hi:Step):(    -1:   194:     1)
(PID.TID 0000.0001) // RANGE J (Lo:Hi:Step):(    34:    -1:    -1)
(PID.TID 0000.0001) // RANGE K (Lo:Hi:Step):(   1:   1:   1)
(PID.TID 0000.0001) // =======================================================
(PID.TID 0000.0001) // =======================================================
(PID.TID 0000.0001) // END OF FIELD                                          =
(PID.TID 0000.0001) // =======================================================
(PID.TID 0000.0001) 
(PID.TID 0000.0001) // =======================================================
(PID.TID 0000.0001) // Field hFacC at iteration          0
(PID.TID 0000.0001) // CMIN =          1.000000000000000E+00
(PID.TID 0000.0001) // CMAX =          1.000000000000000E+00
(PID.TID 0000.0001) // CINT =          0.000000000000000E+00
(PID.TID 0000.0001) // SYMBOLS (CMIN->CMAX): -abcdefghijklmnopqrstuvwxyz+
(PID.TID 0000.0001) //                  0.0: .
(PID.TID 0000.0001) // RANGE I (Lo:Hi:Step):(    -1:   194:     1)
(PID.TID 0000.0001) // RANGE J (Lo:Hi:Step):(    34:    -1:    -1)
(PID.TID 0000.0001) // RANGE K (Lo:Hi:Step):(   1:   1:   1)
(PID.TID 0000.0001) // =======================================================
(PID.TID 0000.0001) // =======================================================
(PID.TID 0000.0001) // END OF FIELD                                          =
(PID.TID 0000.0001) // =======================================================
(PID.TID 0000.0001) 
(PID.TID 0000.0001) // =======================================================
(PID.TID 0000.0001) // Field hFacW at iteration          0
(PID.TID 0000.0001) // CMIN =          1.000000000000000E+00
(PID.TID 0000.0001) // CMAX =          1.000000000000000E+00
(PID.TID 0000.0001) // CINT =          0.000000000000000E+00
(PID.TID 0000.0001) // SYMBOLS (CMIN->CMAX): -abcdefghijklmnopqrstuvwxyz+
(PID.TID 0000.0001) //                  0.0: .
(PID.TID 0000.0001) // RANGE I (Lo:Hi:Step):(    -1:   194:     1)
(PID.TID 0000.0001) // RANGE J (Lo:Hi:Step):(    34:    -1:    -1)
(PID.TID 0000.0001) // RANGE K (Lo:Hi:Step):(   1:   1:   1)
(PID.TID 0000.0001) // =======================================================
(PID.TID 0000.0001) // =======================================================
(PID.TID 0000.0001) // END OF FIELD                                          =
(PID.TID 0000.0001) // =======================================================
(PID.TID 0000.0001) 
(PID.TID 0000.0001) // =======================================================
(PID.TID 0000.0001) // Field hFacS at iteration          0
(PID.TID 0000.0001) // CMIN =          1.000000000000000E+00
(PID.TID 0000.0001) // CMAX =          1.000000000000000E+00
(PID.TID 0000.0001) // CINT =          0.000000000000000E+00
(PID.TID 0000.0001) // SYMBOLS (CMIN->CMAX): -abcdefghijklmnopqrstuvwxyz+
(PID.TID 0000.0001) //                  0.0: .
(PID.TID 0000.0001) // RANGE I (Lo:Hi:Step):(    -1:   194:     1)
(PID.TID 0000.0001) // RANGE J (Lo:Hi:Step):(    34:    -1:    -1)
(PID.TID 0000.0001) // RANGE K (Lo:Hi:Step):(   1:   1:   1)
(PID.TID 0000.0001) // =======================================================
(PID.TID 0000.0001) // =======================================================
(PID.TID 0000.0001) // END OF FIELD                                          =
(PID.TID 0000.0001) // =======================================================
(PID.TID 0000.0001) 
(PID.TID 0000.0001) GAD_INIT_FIXED: GAD_OlMinSize=  2  0  1
(PID.TID 0000.0001) 
(PID.TID 0000.0001) // ===================================
(PID.TID 0000.0001) // GAD parameters :
(PID.TID 0000.0001) // ===================================
(PID.TID 0000.0001) tempAdvScheme =   /* Temp. Horiz.Advection scheme selector */
(PID.TID 0000.0001)                       2
(PID.TID 0000.0001)     ;
(PID.TID 0000.0001) tempVertAdvScheme =   /* Temp. Vert. Advection scheme selector */
(PID.TID 0000.0001)                       2
(PID.TID 0000.0001)     ;
(PID.TID 0000.0001) tempMultiDimAdvec =   /* use Muti-Dim Advec method for Temp */
(PID.TID 0000.0001)                   F
(PID.TID 0000.0001)     ;
(PID.TID 0000.0001) tempSOM_Advection = /* use 2nd Order Moment Advection for Temp */
(PID.TID 0000.0001)                   F
(PID.TID 0000.0001)     ;
(PID.TID 0000.0001) AdamsBashforthGt = /* apply Adams-Bashforth extrapolation on Gt */
(PID.TID 0000.0001)                   T
(PID.TID 0000.0001)     ;
(PID.TID 0000.0001) AdamsBashforth_T = /* apply Adams-Bashforth extrapolation on Temp */
(PID.TID 0000.0001)                   F
(PID.TID 0000.0001)     ;
(PID.TID 0000.0001) saltAdvScheme =   /* Salt. Horiz.advection scheme selector */
(PID.TID 0000.0001)                       3
(PID.TID 0000.0001)     ;
(PID.TID 0000.0001) saltVertAdvScheme =   /* Salt. Vert. Advection scheme selector */
(PID.TID 0000.0001)                       3
(PID.TID 0000.0001)     ;
(PID.TID 0000.0001) saltMultiDimAdvec =   /* use Muti-Dim Advec method for Salt */
(PID.TID 0000.0001)                   F
(PID.TID 0000.0001)     ;
(PID.TID 0000.0001) saltSOM_Advection = /* use 2nd Order Moment Advection for Salt */
(PID.TID 0000.0001)                   F
(PID.TID 0000.0001)     ;
(PID.TID 0000.0001) AdamsBashforthGs = /* apply Adams-Bashforth extrapolation on Gs */
(PID.TID 0000.0001)                   T
(PID.TID 0000.0001)     ;
(PID.TID 0000.0001) AdamsBashforth_S = /* apply Adams-Bashforth extrapolation on Salt */
(PID.TID 0000.0001)                   F
(PID.TID 0000.0001)     ;
(PID.TID 0000.0001) // ===================================
  Set Alarm for: 20040321  000000, with frequency:       3000, and Tag: radsw
  Set Alarm for: 20040321  000000, with frequency:       3000, and Tag: radlw
  Set Alarm for: 20040321  000000, with frequency:        400, and Tag: turb
  Set Alarm for: 20040321  000000, with frequency:       1000, and Tag: moist
  Set Alarm for: 20040321  000000, with frequency:          0, and Tag: pnt
 FIZHI_INIT_VEG: defining surface type and fraction: ----------------------
 FIZHI_INIT_VEG: setting surface Tiles:
  bi=   1, bj=   1, # of Land Tiles=         0, Total # of Tiles=      2048
  bi=   2, bj=   1, # of Land Tiles=         0, Total # of Tiles=      2048
  bi=   3, bj=   1, # of Land Tiles=         0, Total # of Tiles=      2048
  bi=   4, bj=   1, # of Land Tiles=         0, Total # of Tiles=      2048
  bi=   5, bj=   1, # of Land Tiles=         0, Total # of Tiles=      2048
  bi=   6, bj=   1, # of Land Tiles=         0, Total # of Tiles=      2048
 FIZHI_INIT_VEG: done
(PID.TID 0000.0001) ------------------------------------------------------------
(PID.TID 0000.0001) DIAGNOSTICS_SET_LEVELS: done
(PID.TID 0000.0001)  Total Nb of available Diagnostics: ndiagt=   401
(PID.TID 0000.0001)  write list of available Diagnostics to file: available_diagnostics.log
(PID.TID 0000.0001) SETDIAG: Allocate  1 x  1 Levels for Diagnostic #   226 RADSWT
(PID.TID 0000.0001) SETDIAG: Allocate  1 x  1 Levels for Diagnostic #   249 OSR
(PID.TID 0000.0001) SETDIAG: Allocate  1 x  1 Levels for Diagnostic #   215 OLR
(PID.TID 0000.0001) SETDIAG: Allocate  1 x  1 Levels for Diagnostic #   388 PLALBEDO
(PID.TID 0000.0001) SETDIAG: Allocate  1 x  1 Levels for Diagnostic #   279 CLDFRC
(PID.TID 0000.0001) SETDIAG: Allocate  1 x  1 Levels for Diagnostic #   199 PREACC
(PID.TID 0000.0001) SETDIAG: Allocate  1 x  1 Levels for Diagnostic #   200 PRECON
(PID.TID 0000.0001) SETDIAG: Allocate  1 x  1 Levels for Diagnostic #   230 EVAP
(PID.TID 0000.0001) SETDIAG: Allocate  1 x  1 Levels for Diagnostic #   183 RADSWG
(PID.TID 0000.0001) SETDIAG: Allocate  1 x  1 Levels for Diagnostic #   359 ALBNIRDF
(PID.TID 0000.0001) SETDIAG: Allocate  1 x  1 Levels for Diagnostic #   357 ALBVISDF
(PID.TID 0000.0001) SETDIAG: Allocate  1 x  1 Levels for Diagnostic #   224 LWGDOWN
(PID.TID 0000.0001) SETDIAG: Allocate  1 x  1 Levels for Diagnostic #   214 LWGUP
(PID.TID 0000.0001) SETDIAG: Allocate  1 x  1 Levels for Diagnostic #   178 EFLUX
(PID.TID 0000.0001) SETDIAG: Allocate  1 x  1 Levels for Diagnostic #   177 HFLUX
(PID.TID 0000.0001) SETDIAG: Allocate  1 x  1 Levels for Diagnostic #   283 T2M
(PID.TID 0000.0001) SETDIAG: Allocate  1 x  1 Levels for Diagnostic #   284 Q2M
(PID.TID 0000.0001) SETDIAG: Allocate  1 x  1 Levels for Diagnostic #   179 UFLUX
(PID.TID 0000.0001) SETDIAG: Allocate  1 x  1 Levels for Diagnostic #   180 VFLUX
(PID.TID 0000.0001) SETDIAG: Allocate  1 x  1 Levels for Diagnostic #   285 U10M
(PID.TID 0000.0001) SETDIAG: Allocate  1 x  1 Levels for Diagnostic #   286 V10M
(PID.TID 0000.0001) SETDIAG: Allocate  1 x  1 Levels for Diagnostic #   257 PS
(PID.TID 0000.0001) SETDIAG: Allocate  1 x  1 Levels for Diagnostic #   250 OSRCLR
(PID.TID 0000.0001) SETDIAG: Allocate  1 x  1 Levels for Diagnostic #   216 OLRCLR
(PID.TID 0000.0001) SETDIAG: Allocate  1 x  1 Levels for Diagnostic #   260 SWGCLR
(PID.TID 0000.0001) SETDIAG: Allocate  1 x  1 Levels for Diagnostic #   217 LWGCLR
(PID.TID 0000.0001) SETDIAG: Allocate  1 x  1 Levels for Diagnostic #    93 RSURF
(PID.TID 0000.0001) SETDIAG: Allocate 20 x  1 Levels for Diagnostic #    29 UVEL
(PID.TID 0000.0001) SETDIAG: Allocate 20 x  1 Levels for Diagnostic #    30 VVEL
(PID.TID 0000.0001) SETDIAG: Allocate 20 x  1 Levels for Diagnostic #    69 PHIHYD
(PID.TID 0000.0001) SETDIAG: Allocate 20 x  1 Levels for Diagnostic #    31 WVEL
(PID.TID 0000.0001) SETDIAG: Allocate 20 x  1 Levels for Diagnostic #    27 SALT
(PID.TID 0000.0001) SETDIAG: Allocate 20 x  1 Levels for Diagnostic #    28 RELHUM
(PID.TID 0000.0001) SETDIAG: Allocate 20 x  1 Levels for Diagnostic #    92 RCENTER
(PID.TID 0000.0001) SETDIAG: Allocate 20 x  1 Levels for Diagnostic #    26 THETA
(PID.TID 0000.0001) SETDIAG: Allocate 20 x  1 Levels for Diagnostic #    34 UVELSQ
(PID.TID 0000.0001) SETDIAG: Allocate 20 x  1 Levels for Diagnostic #    35 VVELSQ
(PID.TID 0000.0001) SETDIAG: Allocate 20 x  1 Levels for Diagnostic #    32 THETASQ
(PID.TID 0000.0001) SETDIAG: Allocate 20 x  1 Levels for Diagnostic #    36 WVELSQ
(PID.TID 0000.0001) SETDIAG: Allocate 20 x  1 Levels for Diagnostic #    70 PHIHYDSQ
(PID.TID 0000.0001) SETDIAG: Allocate 20 x  1 Levels for Diagnostic #    33 SALTSQ
(PID.TID 0000.0001) SETDIAG: Allocate 20 x  1 Levels for Diagnostic #    39 UV_VEL_C
(PID.TID 0000.0001) SETDIAG: Allocate 20 x  1 Levels for Diagnostic #    41 WU_VEL
(PID.TID 0000.0001) SETDIAG: Allocate 20 x  1 Levels for Diagnostic #    42 WV_VEL
(PID.TID 0000.0001) SETDIAG: Allocate 20 x  1 Levels for Diagnostic #    55 VVELTH
(PID.TID 0000.0001) SETDIAG: Allocate 20 x  1 Levels for Diagnostic #    56 WVELTH
(PID.TID 0000.0001) SETDIAG: Allocate 20 x  1 Levels for Diagnostic #    58 VVELSLT
(PID.TID 0000.0001) SETDIAG: Allocate 20 x  1 Levels for Diagnostic #    59 WVELSLT
(PID.TID 0000.0001) SETDIAG: Allocate 20 x  1 Levels for Diagnostic #    57 UVELSLT
(PID.TID 0000.0001) SETDIAG: Allocate 20 x  1 Levels for Diagnostic #    54 UVELTH
(PID.TID 0000.0001) SETDIAG: Allocate 20 x  1 Levels for Diagnostic #    60 UVELPHI
(PID.TID 0000.0001) SETDIAG: Allocate 20 x  1 Levels for Diagnostic #    61 VVELPHI
(PID.TID 0000.0001) SETDIAG: Allocate  1 x  1 Levels for Diagnostic #    93 RSURF
(PID.TID 0000.0001)   space allocated for all diagnostics:     528 levels
(PID.TID 0000.0001)   set mate pointer for diag #   179  UFLUX    , Parms: UM      L1 , mate:   180
(PID.TID 0000.0001)   set mate pointer for diag #   180  VFLUX    , Parms: VM      L1 , mate:   179
(PID.TID 0000.0001)   set mate pointer for diag #   285  U10M     , Parms: UM      M1 , mate:   286
(PID.TID 0000.0001)   set mate pointer for diag #   286  V10M     , Parms: VM      M1 , mate:   285
(PID.TID 0000.0001)   set mate pointer for diag #    29  UVEL     , Parms: UUR     MR , mate:    30
(PID.TID 0000.0001)   set mate pointer for diag #    30  VVEL     , Parms: VVR     MR , mate:    29
(PID.TID 0000.0001)   set mate pointer for diag #    34  UVELSQ   , Parms: UURP    MR , mate:    35
(PID.TID 0000.0001)   set mate pointer for diag #    35  VVELSQ   , Parms: VVRP    MR , mate:    34
(PID.TID 0000.0001)   set mate pointer for diag #    39  UV_VEL_C , Parms: UMR     MR , mate:    39
(PID.TID 0000.0001)   set mate pointer for diag #    55  VVELTH   , Parms: VVR     MR , mate:    54
(PID.TID 0000.0001)   set mate pointer for diag #    58  VVELSLT  , Parms: VVR     MR , mate:    57
(PID.TID 0000.0001)   set mate pointer for diag #    57  UVELSLT  , Parms: UUR     MR , mate:    58
(PID.TID 0000.0001)   set mate pointer for diag #    54  UVELTH   , Parms: UUR     MR , mate:    55
(PID.TID 0000.0001)   set mate pointer for diag #    60  UVELPHI  , Parms: UUr     MR , mate:    61
(PID.TID 0000.0001)   set mate pointer for diag #    61  VVELPHI  , Parms: VVr     MR , mate:    60
(PID.TID 0000.0001) DIAGNOSTICS_SET_POINTERS: Set levels for Outp.Stream: snapshot_ps
(PID.TID 0000.0001)  Levels:       1.
(PID.TID 0000.0001) DIAGNOSTICS_SET_POINTERS: done
(PID.TID 0000.0001) ------------------------------------------------------------
(PID.TID 0000.0001) DIAGSTATS_SET_REGIONS: define no region
(PID.TID 0000.0001) ------------------------------------------------------------
(PID.TID 0000.0001) SETDIAG: Allocate  1 Levels for Stats-Diag #   226 RADSWT
(PID.TID 0000.0001) SETDIAG: Allocate  1 Levels for Stats-Diag #   249 OSR
(PID.TID 0000.0001) SETDIAG: Allocate  1 Levels for Stats-Diag #   215 OLR
(PID.TID 0000.0001) SETDIAG: Allocate  1 Levels for Stats-Diag #   388 PLALBEDO
(PID.TID 0000.0001) SETDIAG: Allocate  1 Levels for Stats-Diag #   279 CLDFRC
(PID.TID 0000.0001) SETDIAG: Allocate  1 Levels for Stats-Diag #   199 PREACC
(PID.TID 0000.0001) SETDIAG: Allocate  1 Levels for Stats-Diag #   200 PRECON
(PID.TID 0000.0001) SETDIAG: Allocate  1 Levels for Stats-Diag #   230 EVAP
(PID.TID 0000.0001) SETDIAG: Allocate  1 Levels for Stats-Diag #   183 RADSWG
(PID.TID 0000.0001) SETDIAG: Allocate  1 Levels for Stats-Diag #   359 ALBNIRDF
(PID.TID 0000.0001) SETDIAG: Allocate  1 Levels for Stats-Diag #   357 ALBVISDF
(PID.TID 0000.0001) SETDIAG: Allocate  1 Levels for Stats-Diag #   224 LWGDOWN
(PID.TID 0000.0001) SETDIAG: Allocate  1 Levels for Stats-Diag #   214 LWGUP
(PID.TID 0000.0001) SETDIAG: Allocate  1 Levels for Stats-Diag #   178 EFLUX
(PID.TID 0000.0001) SETDIAG: Allocate  1 Levels for Stats-Diag #   177 HFLUX
(PID.TID 0000.0001) SETDIAG: Allocate  1 Levels for Stats-Diag #   283 T2M
(PID.TID 0000.0001) SETDIAG: Allocate  1 Levels for Stats-Diag #   284 Q2M
(PID.TID 0000.0001) SETDIAG: Allocate  1 Levels for Stats-Diag #   179 UFLUX
(PID.TID 0000.0001) SETDIAG: Allocate  1 Levels for Stats-Diag #   180 VFLUX
(PID.TID 0000.0001) SETDIAG: Allocate  1 Levels for Stats-Diag #   285 U10M
(PID.TID 0000.0001) SETDIAG: Allocate  1 Levels for Stats-Diag #   286 V10M
(PID.TID 0000.0001) SETDIAG: Allocate  1 Levels for Stats-Diag #   257 PS
(PID.TID 0000.0001) SETDIAG: Allocate  1 Levels for Stats-Diag #   250 OSRCLR
(PID.TID 0000.0001) SETDIAG: Allocate  1 Levels for Stats-Diag #   216 OLRCLR
(PID.TID 0000.0001) SETDIAG: Allocate  1 Levels for Stats-Diag #   260 SWGCLR
(PID.TID 0000.0001) SETDIAG: Allocate  1 Levels for Stats-Diag #   217 LWGCLR
(PID.TID 0000.0001)   space allocated for all stats-diags:      26 levels
(PID.TID 0000.0001) DIAGSTATS_SET_POINTERS: done
(PID.TID 0000.0001) ------------------------------------------------------------
  Set Alarm for: 20040321  000000, with frequency:      60000, and Tag: diagtag01
  Set Alarm for: 20040321  000000, with frequency:      60000, and Tag: diagtag02
  Set Alarm for: 20040321  000000, with frequency:      60000, and Tag: diagtag03
  Set Alarm for: 20040321  000000, with frequency:      60000, and Tag: diagtag04
  Set Alarm for: 20040321  000000, with frequency:    1000000, and Tag: diagStg01
(PID.TID 0000.0001) INI_GLOBAL_DOMAIN: Found  24 CS-corner Pts in the domain
(PID.TID 0000.0001) %MON fCori_max                    =   1.4574827780704E-04
(PID.TID 0000.0001) %MON fCori_min                    =  -1.4574827780704E-04
(PID.TID 0000.0001) %MON fCori_mean                   =   0.0000000000000E+00
(PID.TID 0000.0001) %MON fCori_sd                     =   8.4202189509968E-05
(PID.TID 0000.0001) %MON fCoriG_max                   =   1.4584247033981E-04
(PID.TID 0000.0001) %MON fCoriG_min                   =  -1.4584247033981E-04
(PID.TID 0000.0001) %MON fCoriG_mean                  =   2.2587545260115E-21
(PID.TID 0000.0001) %MON fCoriG_sd                    =   8.4202189509968E-05
(PID.TID 0000.0001) %MON fCoriCos_max                 =   1.4580166994612E-04
(PID.TID 0000.0001) %MON fCoriCos_min                 =   5.2407700865903E-06
(PID.TID 0000.0001) %MON fCoriCos_mean                =   1.1514045869113E-04
(PID.TID 0000.0001) %MON fCoriCos_sd                  =   3.0375849106513E-05
(PID.TID 0000.0001) INI_CG2D: CG2D normalisation factor =  9.8060549904498893E-06
(PID.TID 0000.0001) INI_CG2D: cg2dTolerance = 4.166463737598143E-10 (Area=5.0986421043E+14)
(PID.TID 0000.0001) 
(PID.TID 0000.0001) // =======================================================
(PID.TID 0000.0001) // Model configuration
(PID.TID 0000.0001) // =======================================================
(PID.TID 0000.0001) //
(PID.TID 0000.0001) // "Physical" paramters ( PARM01 in namelist )
(PID.TID 0000.0001) //
(PID.TID 0000.0001) buoyancyRelation = /* Type of relation to get Buoyancy */
(PID.TID 0000.0001)               'ATMOSPHERIC'
(PID.TID 0000.0001)     ;
(PID.TID 0000.0001) fluidIsAir   =  /* fluid major constituent is Air */
(PID.TID 0000.0001)                   T
(PID.TID 0000.0001)     ;
(PID.TID 0000.0001) fluidIsWater =  /* fluid major constituent is Water */
(PID.TID 0000.0001)                   F
(PID.TID 0000.0001)     ;
(PID.TID 0000.0001) usingPCoords =  /* use p (or p*) vertical coordinate */
(PID.TID 0000.0001)                   T
(PID.TID 0000.0001)     ;
(PID.TID 0000.0001) usingZCoords =  /* use z (or z*) vertical coordinate */
(PID.TID 0000.0001)                   F
(PID.TID 0000.0001)     ;
(PID.TID 0000.0001) tRef =   /* Reference temperature profile ( oC or K ) */
(PID.TID 0000.0001)                 2.860000000000000E+02,      /* K =  1 */
(PID.TID 0000.0001)                 2.880000000000000E+02,      /* K =  2 */
(PID.TID 0000.0001)                 2.900000000000000E+02,      /* K =  3 */
(PID.TID 0000.0001)                 2.920000000000000E+02,      /* K =  4 */
(PID.TID 0000.0001)                 2.950000000000000E+02,      /* K =  5 */
(PID.TID 0000.0001)                 2.980000000000000E+02,      /* K =  6 */
(PID.TID 0000.0001)                 3.010000000000000E+02,      /* K =  7 */
(PID.TID 0000.0001)                 3.040000000000000E+02,      /* K =  8 */
(PID.TID 0000.0001)                 3.070000000000000E+02,      /* K =  9 */
(PID.TID 0000.0001)                 3.100000000000000E+02,      /* K = 10 */
(PID.TID 0000.0001)                 3.130000000000000E+02,      /* K = 11 */
(PID.TID 0000.0001)                 3.160000000000000E+02,      /* K = 12 */
(PID.TID 0000.0001)                 3.195000000000000E+02,      /* K = 13 */
(PID.TID 0000.0001)                 3.230000000000000E+02,      /* K = 14 */
(PID.TID 0000.0001)                 3.275000000000000E+02,      /* K = 15 */
(PID.TID 0000.0001)                 3.320000000000000E+02,      /* K = 16 */
(PID.TID 0000.0001)                 3.430000000000000E+02,      /* K = 17 */
(PID.TID 0000.0001)                 3.560000000000000E+02,      /* K = 18 */
(PID.TID 0000.0001)                 3.960000000000000E+02,      /* K = 19 */
(PID.TID 0000.0001)                 4.400000000000000E+02       /* K = 20 */
(PID.TID 0000.0001)     ;
(PID.TID 0000.0001) sRef =   /* Reference salinity profile ( psu ) */
(PID.TID 0000.0001)    20 @  0.000000000000000E+00              /* K =  1: 20 */
(PID.TID 0000.0001)     ;
(PID.TID 0000.0001) viscAh  =   /* Lateral eddy viscosity ( m^2/s ) */
(PID.TID 0000.0001)                 0.000000000000000E+00
(PID.TID 0000.0001)     ;
(PID.TID 0000.0001) viscAhMax = /* Maximum lateral eddy viscosity ( m^2/s ) */
(PID.TID 0000.0001)                 1.000000000000000E+21
(PID.TID 0000.0001)     ;
(PID.TID 0000.0001) viscAhGrid = /* Grid dependent lateral eddy viscosity ( non-dim. ) */
(PID.TID 0000.0001)                 0.000000000000000E+00
(PID.TID 0000.0001)     ;
(PID.TID 0000.0001) useFullLeith = /* Use Full Form of Leith Viscosity on/off flag*/
(PID.TID 0000.0001)                   F
(PID.TID 0000.0001)     ;
(PID.TID 0000.0001) useStrainTensionVisc= /* Use StrainTension Form of Viscous Operator flag*/
(PID.TID 0000.0001)                   F
(PID.TID 0000.0001)     ;
(PID.TID 0000.0001) useAreaViscLength = /* Use area for visc length instead of geom. mean*/
(PID.TID 0000.0001)                   F
(PID.TID 0000.0001)     ;
(PID.TID 0000.0001) viscC2leith = /* Leith harmonic visc. factor (on grad(vort),non-dim.) */
(PID.TID 0000.0001)                 0.000000000000000E+00
(PID.TID 0000.0001)     ;
(PID.TID 0000.0001) viscC2leithD = /* Leith harmonic viscosity factor (on grad(div),non-dim.)*/
(PID.TID 0000.0001)                 0.000000000000000E+00
(PID.TID 0000.0001)     ;
(PID.TID 0000.0001) viscC2smag = /* Smagorinsky harmonic viscosity factor (non-dim.) */
(PID.TID 0000.0001)                 0.000000000000000E+00
(PID.TID 0000.0001)     ;
(PID.TID 0000.0001) viscA4  =   /* Lateral biharmonic viscosity ( m^4/s ) */
(PID.TID 0000.0001)                 0.000000000000000E+00
(PID.TID 0000.0001)     ;
(PID.TID 0000.0001) viscA4Max = /* Maximum biharmonic viscosity ( m^2/s ) */
(PID.TID 0000.0001)                 1.000000000000000E+21
(PID.TID 0000.0001)     ;
(PID.TID 0000.0001) viscA4Grid = /* Grid dependent biharmonic viscosity ( non-dim. ) */
(PID.TID 0000.0001)                 0.000000000000000E+00
(PID.TID 0000.0001)     ;
(PID.TID 0000.0001) viscC4leith = /* Leith biharm viscosity factor (on grad(vort), non-dim.)*/
(PID.TID 0000.0001)                 0.000000000000000E+00
(PID.TID 0000.0001)     ;
(PID.TID 0000.0001) viscC4leithD = /* Leith biharm viscosity factor (on grad(div), non-dim.) */
(PID.TID 0000.0001)                 0.000000000000000E+00
(PID.TID 0000.0001)     ;
(PID.TID 0000.0001) viscC4Smag = /* Smagorinsky biharm viscosity factor (non-dim) */
(PID.TID 0000.0001)                 0.000000000000000E+00
(PID.TID 0000.0001)     ;
(PID.TID 0000.0001) no_slip_sides =  /* Viscous BCs: No-slip sides */
(PID.TID 0000.0001)                   F
(PID.TID 0000.0001)     ;
(PID.TID 0000.0001) sideDragFactor = /* side-drag scaling factor (non-dim) */
(PID.TID 0000.0001)                 2.000000000000000E+00
(PID.TID 0000.0001)     ;
(PID.TID 0000.0001) viscArNr = /* vertical profile of vertical viscosity (Pa^2/s )*/
(PID.TID 0000.0001)    20 @  0.000000000000000E+00              /* K =  1: 20 */
(PID.TID 0000.0001)     ;
(PID.TID 0000.0001) no_slip_bottom =  /* Viscous BCs: No-slip bottom */
(PID.TID 0000.0001)                   F
(PID.TID 0000.0001)     ;
(PID.TID 0000.0001) bottomDragLinear = /* linear bottom-drag coefficient ( m/s ) */
(PID.TID 0000.0001)                 0.000000000000000E+00
(PID.TID 0000.0001)     ;
(PID.TID 0000.0001) bottomDragQuadratic = /* quadratic bottom-drag coefficient (-) */
(PID.TID 0000.0001)                 0.000000000000000E+00
(PID.TID 0000.0001)     ;
(PID.TID 0000.0001) diffKhT =   /* Laplacian diffusion of heat laterally ( m^2/s ) */
(PID.TID 0000.0001)                 0.000000000000000E+00
(PID.TID 0000.0001)     ;
(PID.TID 0000.0001) diffK4T =   /* Biharmonic diffusion of heat laterally ( m^4/s ) */
(PID.TID 0000.0001)                 0.000000000000000E+00
(PID.TID 0000.0001)     ;
(PID.TID 0000.0001) diffKhS =   /* Laplacian diffusion of salt laterally ( m^2/s ) */
(PID.TID 0000.0001)                 0.000000000000000E+00
(PID.TID 0000.0001)     ;
(PID.TID 0000.0001) diffK4S =   /* Biharmonic diffusion of salt laterally ( m^4/s ) */
(PID.TID 0000.0001)                 0.000000000000000E+00
(PID.TID 0000.0001)     ;
(PID.TID 0000.0001) diffKrNrT = /* vertical profile of vertical diffusion of Temp (Pa^2/s )*/
(PID.TID 0000.0001)    20 @  0.000000000000000E+00              /* K =  1: 20 */
(PID.TID 0000.0001)     ;
(PID.TID 0000.0001) diffKrNrS = /* vertical profile of vertical diffusion of Salt (Pa^2/s )*/
(PID.TID 0000.0001)    20 @  0.000000000000000E+00              /* K =  1: 20 */
(PID.TID 0000.0001)     ;
(PID.TID 0000.0001) diffKrBL79surf = /* Surface diffusion for Bryan and Lewis 79 ( m^2/s ) */
(PID.TID 0000.0001)                 0.000000000000000E+00
(PID.TID 0000.0001)     ;
(PID.TID 0000.0001) diffKrBL79deep = /* Deep diffusion for Bryan and Lewis 1979 ( m^2/s ) */
(PID.TID 0000.0001)                 0.000000000000000E+00
(PID.TID 0000.0001)     ;
(PID.TID 0000.0001) diffKrBL79scl = /* Depth scale for Bryan and Lewis 1979 ( m ) */
(PID.TID 0000.0001)                 2.000000000000000E+02
(PID.TID 0000.0001)     ;
(PID.TID 0000.0001) diffKrBL79Ho = /* Turning depth for Bryan and Lewis 1979 ( m ) */
(PID.TID 0000.0001)                -2.000000000000000E+03
(PID.TID 0000.0001)     ;
(PID.TID 0000.0001) ivdc_kappa = /* Implicit Vertical Diffusivity for Convection (Pa^2/s) */
(PID.TID 0000.0001)                 0.000000000000000E+00
(PID.TID 0000.0001)     ;
(PID.TID 0000.0001) hMixCriteria=  /* Criteria for mixed-layer diagnostic */
(PID.TID 0000.0001)                -8.000000000000000E-01
(PID.TID 0000.0001)     ;
(PID.TID 0000.0001) dRhoSmall =  /* Parameter for mixed-layer diagnostic */
(PID.TID 0000.0001)                 1.000000000000000E-06
(PID.TID 0000.0001)     ;
(PID.TID 0000.0001) hMixSmooth=  /* Smoothing parameter for mixed-layer diagnostic */
(PID.TID 0000.0001)                 0.000000000000000E+00
(PID.TID 0000.0001)     ;
(PID.TID 0000.0001) eosType =  /* Type of Equation of State */
(PID.TID 0000.0001)               'IDEALG'
(PID.TID 0000.0001)     ;
(PID.TID 0000.0001) celsius2K = /* 0 degree Celsius converted to Kelvin ( K ) */
(PID.TID 0000.0001)                 2.731500000000000E+02
(PID.TID 0000.0001)     ;
(PID.TID 0000.0001) atm_Rd =  /* gas constant for dry air ( J/kg/K ) */
(PID.TID 0000.0001)                 2.868571428571428E+02
(PID.TID 0000.0001)     ;
(PID.TID 0000.0001) atm_Cp =  /* specific heat (Cp) of dry air ( J/kg/K ) */
(PID.TID 0000.0001)                 1.004000000000000E+03
(PID.TID 0000.0001)     ;
(PID.TID 0000.0001) atm_kappa =  /* kappa (=Rd/Cp ) of dry air */
(PID.TID 0000.0001)                 2.857142857142857E-01
(PID.TID 0000.0001)     ;
(PID.TID 0000.0001) atm_Rq = /* water vap. specific vol. anomaly relative to dry air */
(PID.TID 0000.0001)                 6.078000000000000E-01
(PID.TID 0000.0001)     ;
(PID.TID 0000.0001) atm_Po =  /* standard reference pressure ( Pa ) */
(PID.TID 0000.0001)                 1.000000000000000E+05
(PID.TID 0000.0001)     ;
(PID.TID 0000.0001) integr_GeoPot =  /* select how the geopotential is integrated */
(PID.TID 0000.0001)                       2
(PID.TID 0000.0001)     ;
(PID.TID 0000.0001) selectFindRoSurf=  /* select how Surf.Ref. pressure is defined */
(PID.TID 0000.0001)                       0
(PID.TID 0000.0001)     ;
(PID.TID 0000.0001) rhoConst  = /* Reference density (Boussinesq)  ( kg/m^3 ) */
(PID.TID 0000.0001)                 9.998000000000000E+02
(PID.TID 0000.0001)     ;
(PID.TID 0000.0001) rhoFacC = /* normalized Reference density @ cell-Center (-) */
(PID.TID 0000.0001)    20 @  1.000000000000000E+00              /* K =  1: 20 */
(PID.TID 0000.0001)     ;
(PID.TID 0000.0001) rhoFacF = /* normalized Reference density @ W-Interface (-) */
(PID.TID 0000.0001)    21 @  1.000000000000000E+00              /* K =  1: 21 */
(PID.TID 0000.0001)     ;
(PID.TID 0000.0001) rhoConstFresh = /* Fresh-water reference density ( kg/m^3 ) */
(PID.TID 0000.0001)                 9.998000000000000E+02
(PID.TID 0000.0001)     ;
(PID.TID 0000.0001) gravity =   /* Gravitational acceleration ( m/s^2 ) */
(PID.TID 0000.0001)                 9.810000000000000E+00
(PID.TID 0000.0001)     ;
(PID.TID 0000.0001) gBaro =   /* Barotropic gravity ( m/s^2 ) */
(PID.TID 0000.0001)                 9.810000000000000E+00
(PID.TID 0000.0001)     ;
(PID.TID 0000.0001) rotationPeriod =   /* Rotation Period ( s ) */
(PID.TID 0000.0001)                 8.616400000000000E+04
(PID.TID 0000.0001)     ;
(PID.TID 0000.0001) omega =   /* Angular velocity ( rad/s ) */
(PID.TID 0000.0001)                 7.292123516990375E-05
(PID.TID 0000.0001)     ;
(PID.TID 0000.0001) f0 =   /* Reference coriolis parameter ( 1/s ) */
(PID.TID 0000.0001)                 1.000000000000000E-04
(PID.TID 0000.0001)     ;
(PID.TID 0000.0001) beta =   /* Beta ( 1/(m.s) ) */
(PID.TID 0000.0001)                 9.999999999999999E-12
(PID.TID 0000.0001)     ;
(PID.TID 0000.0001) fPrime =   /* Second coriolis parameter ( 1/s ) */
(PID.TID 0000.0001)                 0.000000000000000E+00
(PID.TID 0000.0001)     ;
(PID.TID 0000.0001) rigidLid =   /* Rigid lid on/off flag */
(PID.TID 0000.0001)                   F
(PID.TID 0000.0001)     ;
(PID.TID 0000.0001) implicitFreeSurface =   /* Implicit free surface on/off flag */
(PID.TID 0000.0001)                   T
(PID.TID 0000.0001)     ;
(PID.TID 0000.0001) freeSurfFac =   /* Implicit free surface factor */
(PID.TID 0000.0001)                 1.000000000000000E+00
(PID.TID 0000.0001)     ;
(PID.TID 0000.0001) implicSurfPress =  /* Surface Pressure implicit factor (0-1)*/
(PID.TID 0000.0001)                 1.000000000000000E+00
(PID.TID 0000.0001)     ;
(PID.TID 0000.0001) implicDiv2Dflow =  /* Barot. Flow Div. implicit factor (0-1)*/
(PID.TID 0000.0001)                 1.000000000000000E+00
(PID.TID 0000.0001)     ;
(PID.TID 0000.0001) uniformLin_PhiSurf = /* use uniform Bo_surf on/off flag*/
(PID.TID 0000.0001)                   F
(PID.TID 0000.0001)     ;
(PID.TID 0000.0001) uniformFreeSurfLev = /* free-surface level-index is uniform */
(PID.TID 0000.0001)                   F
(PID.TID 0000.0001)     ;
(PID.TID 0000.0001) hFacMin =   /* minimum partial cell factor (hFac) */
(PID.TID 0000.0001)                 2.000000000000000E-01
(PID.TID 0000.0001)     ;
(PID.TID 0000.0001) hFacMinDr = /* minimum partial cell thickness (Pa) */
(PID.TID 0000.0001)                 2.000000000000000E-01
(PID.TID 0000.0001)     ;
(PID.TID 0000.0001) exactConserv =  /* Exact Volume Conservation on/off flag*/
(PID.TID 0000.0001)                   T
(PID.TID 0000.0001)     ;
(PID.TID 0000.0001) linFSConserveTr = /* Tracer correction for Lin Free Surface on/off flag*/
(PID.TID 0000.0001)                   F
(PID.TID 0000.0001)     ;
(PID.TID 0000.0001) nonlinFreeSurf = /* Non-linear Free Surf. options (-1,0,1,2,3)*/
(PID.TID 0000.0001)                       4
(PID.TID 0000.0001)      -1,0= Off ; 1,2,3= On, 2=+rescale gU,gV, 3=+update cg2d solv.
(PID.TID 0000.0001)     ;
(PID.TID 0000.0001) hFacInf =   /* lower threshold for hFac (nonlinFreeSurf only)*/
(PID.TID 0000.0001)                 2.000000000000000E-01
(PID.TID 0000.0001)     ;
(PID.TID 0000.0001) hFacSup =   /* upper threshold for hFac (nonlinFreeSurf only)*/
(PID.TID 0000.0001)                 2.000000000000000E+00
(PID.TID 0000.0001)     ;
(PID.TID 0000.0001) select_rStar = /* r* Vertical coord. options (=0 r coord.; >0 uses r*)*/
(PID.TID 0000.0001)                       2
(PID.TID 0000.0001)     ;
(PID.TID 0000.0001) useRealFreshWaterFlux = /* Real Fresh Water Flux on/off flag*/
(PID.TID 0000.0001)                   F
(PID.TID 0000.0001)     ;
(PID.TID 0000.0001) temp_EvPrRn = /* Temp. of Evap/Prec/R (UNSET=use local T)(oC)*/
(PID.TID 0000.0001)                 1.234567000000000E+05
(PID.TID 0000.0001)     ;
(PID.TID 0000.0001) salt_EvPrRn = /* Salin. of Evap/Prec/R (UNSET=use local S)(psu)*/
(PID.TID 0000.0001)                 0.000000000000000E+00
(PID.TID 0000.0001)     ;
(PID.TID 0000.0001) selectAddFluid = /* option for mass source/sink of fluid (=0: off) */
(PID.TID 0000.0001)                       0
(PID.TID 0000.0001)     ;
(PID.TID 0000.0001) temp_addMass = /* Temp. of addMass array (UNSET=use local T)(oC)*/
(PID.TID 0000.0001)                 1.234567000000000E+05
(PID.TID 0000.0001)     ;
(PID.TID 0000.0001) salt_addMass = /* Salin. of addMass array (UNSET=use local S)(psu)*/
(PID.TID 0000.0001)                 0.000000000000000E+00
(PID.TID 0000.0001)     ;
(PID.TID 0000.0001) convertFW2Salt = /* convert F.W. Flux to Salt Flux (-1=use local S)(psu)*/
(PID.TID 0000.0001)                 3.500000000000000E+01
(PID.TID 0000.0001)     ;
(PID.TID 0000.0001) use3Dsolver = /* use 3-D pressure solver on/off flag */
(PID.TID 0000.0001)                   F
(PID.TID 0000.0001)     ;
(PID.TID 0000.0001) nonHydrostatic =  /* Non-Hydrostatic on/off flag */
(PID.TID 0000.0001)                   F
(PID.TID 0000.0001)     ;
(PID.TID 0000.0001) nh_Am2 = /* Non-Hydrostatic terms scaling factor */
(PID.TID 0000.0001)                 1.000000000000000E+00
(PID.TID 0000.0001)     ;
(PID.TID 0000.0001) implicitNHPress = /* Non-Hyd Pressure implicit factor (0-1)*/
(PID.TID 0000.0001)                 1.000000000000000E+00
(PID.TID 0000.0001)     ;
(PID.TID 0000.0001) selectNHfreeSurf = /* Non-Hyd (free-)Surface option */
(PID.TID 0000.0001)                       0
(PID.TID 0000.0001)     ;
(PID.TID 0000.0001) quasiHydrostatic = /* Quasi-Hydrostatic on/off flag */
(PID.TID 0000.0001)                   F
(PID.TID 0000.0001)     ;
(PID.TID 0000.0001) calc_wVelocity = /* vertical velocity calculation on/off flag */
(PID.TID 0000.0001)                   T
(PID.TID 0000.0001)     ;
(PID.TID 0000.0001) momStepping =  /* Momentum equation on/off flag */
(PID.TID 0000.0001)                   T
(PID.TID 0000.0001)     ;
(PID.TID 0000.0001) vectorInvariantMomentum= /* Vector-Invariant Momentum on/off */
(PID.TID 0000.0001)                   T
(PID.TID 0000.0001)     ;
(PID.TID 0000.0001) momAdvection =  /* Momentum advection on/off flag */
(PID.TID 0000.0001)                   T
(PID.TID 0000.0001)     ;
(PID.TID 0000.0001) momViscosity =  /* Momentum viscosity on/off flag */
(PID.TID 0000.0001)                   T
(PID.TID 0000.0001)     ;
(PID.TID 0000.0001) momImplVertAdv= /* Momentum implicit vert. advection on/off*/
(PID.TID 0000.0001)                   F
(PID.TID 0000.0001)     ;
(PID.TID 0000.0001) implicitViscosity = /* Implicit viscosity on/off flag */
(PID.TID 0000.0001)                   F
(PID.TID 0000.0001)     ;
(PID.TID 0000.0001) metricTerms =  /* metric-Terms on/off flag */
(PID.TID 0000.0001)                   F
(PID.TID 0000.0001)     ;
(PID.TID 0000.0001) useNHMTerms = /* Non-Hydrostatic Metric-Terms on/off */
(PID.TID 0000.0001)                   F
(PID.TID 0000.0001)     ;
(PID.TID 0000.0001) selectCoriMap = /* Coriolis Map options (0,1,2,3)*/
(PID.TID 0000.0001)                       2
(PID.TID 0000.0001)     0= f-Plane ; 1= Beta-Plane ; 2= Spherical ; 3= read from file
(PID.TID 0000.0001)     ;
(PID.TID 0000.0001) use3dCoriolis = /* 3-D Coriolis on/off flag */
(PID.TID 0000.0001)                   F
(PID.TID 0000.0001)     ;
(PID.TID 0000.0001) useCoriolis =  /* Coriolis on/off flag */
(PID.TID 0000.0001)                   T
(PID.TID 0000.0001)     ;
(PID.TID 0000.0001) useCDscheme =  /* CD scheme on/off flag */
(PID.TID 0000.0001)                   F
(PID.TID 0000.0001)     ;
(PID.TID 0000.0001) useEnergyConservingCoriolis= /* Flx-Form Coriolis scheme flag */
(PID.TID 0000.0001)                   F
(PID.TID 0000.0001)     ;
(PID.TID 0000.0001) useJamartWetPoints= /* Coriolis WetPoints method flag */
(PID.TID 0000.0001)                   F
(PID.TID 0000.0001)     ;
(PID.TID 0000.0001) useJamartMomAdv= /* V.I Non-linear terms Jamart flag */
(PID.TID 0000.0001)                   F
(PID.TID 0000.0001)     ;
(PID.TID 0000.0001) useAbsVorticity= /* V.I Works with f+zeta in Coriolis */
(PID.TID 0000.0001)                   T
(PID.TID 0000.0001)     ;
(PID.TID 0000.0001) selectVortScheme= /* V.I Scheme selector for Vorticity-Term */
(PID.TID 0000.0001)                       2
(PID.TID 0000.0001)    = 0 : enstrophy (Shallow-Water Eq.) conserving scheme by Sadourny, JAS 75
(PID.TID 0000.0001)    = 1 : same as 0 with modified hFac
(PID.TID 0000.0001)    = 2 : energy conserving scheme (used by Sadourny in JAS 75 paper)
(PID.TID 0000.0001)    = 3 : energy (general) and enstrophy (2D, nonDiv.) conserving scheme
(PID.TID 0000.0001)          from Sadourny (Burridge & Haseler, ECMWF Rep.4, 1977)
(PID.TID 0000.0001)     ;
(PID.TID 0000.0001) upwindVorticity= /* V.I Upwind bias vorticity flag */
(PID.TID 0000.0001)                   F
(PID.TID 0000.0001)     ;
(PID.TID 0000.0001) highOrderVorticity= /* V.I High order vort. advect. flag */
(PID.TID 0000.0001)                   F
(PID.TID 0000.0001)     ;
(PID.TID 0000.0001) upwindShear= /* V.I Upwind vertical Shear advection flag */
(PID.TID 0000.0001)                   F
(PID.TID 0000.0001)     ;
(PID.TID 0000.0001) selectKEscheme= /* V.I Kinetic Energy scheme selector */
(PID.TID 0000.0001)                       3
(PID.TID 0000.0001)     ;
(PID.TID 0000.0001) momForcing =  /* Momentum forcing on/off flag */
(PID.TID 0000.0001)                   T
(PID.TID 0000.0001)     ;
(PID.TID 0000.0001) momPressureForcing =  /* Momentum pressure term on/off flag */
(PID.TID 0000.0001)                   T
(PID.TID 0000.0001)     ;
(PID.TID 0000.0001) implicitIntGravWave= /* Implicit Internal Gravity Wave flag */
(PID.TID 0000.0001)                   F
(PID.TID 0000.0001)     ;
(PID.TID 0000.0001) staggerTimeStep =    /* Stagger time stepping on/off flag */
(PID.TID 0000.0001)                   T
(PID.TID 0000.0001)     ;
(PID.TID 0000.0001) doResetHFactors = /* reset thickness factors @ each time-step */
(PID.TID 0000.0001)                   F
(PID.TID 0000.0001)     ;
(PID.TID 0000.0001) multiDimAdvection =  /* enable/disable Multi-Dim Advection */
(PID.TID 0000.0001)                   T
(PID.TID 0000.0001)     ;
(PID.TID 0000.0001) useMultiDimAdvec =   /* Multi-Dim Advection is/is-not used */
(PID.TID 0000.0001)                   F
(PID.TID 0000.0001)     ;
(PID.TID 0000.0001) implicitDiffusion = /* Implicit Diffusion on/off flag */
(PID.TID 0000.0001)                   F
(PID.TID 0000.0001)     ;
(PID.TID 0000.0001) tempStepping =  /* Temperature equation on/off flag */
(PID.TID 0000.0001)                   T
(PID.TID 0000.0001)     ;
(PID.TID 0000.0001) tempAdvection = /* Temperature advection on/off flag */
(PID.TID 0000.0001)                   T
(PID.TID 0000.0001)     ;
(PID.TID 0000.0001) tempImplVertAdv = /* Temp. implicit vert. advection on/off */
(PID.TID 0000.0001)                   F
(PID.TID 0000.0001)     ;
(PID.TID 0000.0001) tempForcing  =  /* Temperature forcing on/off flag */
(PID.TID 0000.0001)                   T
(PID.TID 0000.0001)     ;
(PID.TID 0000.0001) doThetaClimRelax = /* apply SST relaxation on/off flag */
(PID.TID 0000.0001)                   F
(PID.TID 0000.0001)     ;
(PID.TID 0000.0001) tempIsActiveTr = /* Temp. is a dynamically Active Tracer */
(PID.TID 0000.0001)                   T
(PID.TID 0000.0001)     ;
(PID.TID 0000.0001) saltStepping =  /* Salinity equation on/off flag */
(PID.TID 0000.0001)                   T
(PID.TID 0000.0001)     ;
(PID.TID 0000.0001) saltAdvection = /* Salinity advection on/off flag */
(PID.TID 0000.0001)                   T
(PID.TID 0000.0001)     ;
(PID.TID 0000.0001) saltImplVertAdv = /* Sali. implicit vert. advection on/off */
(PID.TID 0000.0001)                   F
(PID.TID 0000.0001)     ;
(PID.TID 0000.0001) saltForcing  =  /* Salinity forcing on/off flag */
(PID.TID 0000.0001)                   T
(PID.TID 0000.0001)     ;
(PID.TID 0000.0001) doSaltClimRelax = /* apply SSS relaxation on/off flag */
(PID.TID 0000.0001)                   F
(PID.TID 0000.0001)     ;
(PID.TID 0000.0001) saltIsActiveTr = /* Salt  is a dynamically Active Tracer */
(PID.TID 0000.0001)                   T
(PID.TID 0000.0001)     ;
(PID.TID 0000.0001)  readBinaryPrec = /* Precision used for reading binary files */
(PID.TID 0000.0001)                      64
(PID.TID 0000.0001)     ;
(PID.TID 0000.0001) writeBinaryPrec = /* Precision used for writing binary files */
(PID.TID 0000.0001)                      64
(PID.TID 0000.0001)     ;
(PID.TID 0000.0001)  globalFiles = /* write "global" (=not per tile) files */
(PID.TID 0000.0001)                   F
(PID.TID 0000.0001)     ;
(PID.TID 0000.0001)  useSingleCpuIO = /* only master MPI process does I/O */
(PID.TID 0000.0001)                   F
(PID.TID 0000.0001)     ;
(PID.TID 0000.0001) /* debLev[*]  : level of debug & auxiliary message printing */
(PID.TID 0000.0001) debLevZero =  0 ; /* level of disabled aux. msg printing */
(PID.TID 0000.0001)    debLevA =  1 ; /* level of minimum  aux. msg printing */
(PID.TID 0000.0001)    debLevB =  2 ; /* level of low aux. print (report read-file opening)*/
(PID.TID 0000.0001)    debLevC =  3 ; /* level of moderate debug prt (most pkgs debug msg) */
(PID.TID 0000.0001)    debLevD =  4 ; /* level of enhanced debug prt (add DEBUG_STATS prt) */
(PID.TID 0000.0001)    debLevE =  5 ; /* level of extensive debug printing */
(PID.TID 0000.0001) debugLevel =  /* select debug printing level */
(PID.TID 0000.0001)                       2
(PID.TID 0000.0001)     ;
(PID.TID 0000.0001) //
(PID.TID 0000.0001) // Elliptic solver(s) paramters ( PARM02 in namelist )
(PID.TID 0000.0001) //
(PID.TID 0000.0001) cg2dMaxIters =   /* Upper limit on 2d con. grad iterations  */
(PID.TID 0000.0001)                     200
(PID.TID 0000.0001)     ;
(PID.TID 0000.0001) cg2dChkResFreq =   /* 2d con. grad convergence test frequency */
(PID.TID 0000.0001)                       1
(PID.TID 0000.0001)     ;
(PID.TID 0000.0001) cg2dUseMinResSol= /* use cg2d last-iter(=0) / min-resid.(=1) solution */
(PID.TID 0000.0001)                       0
(PID.TID 0000.0001)     ;
(PID.TID 0000.0001) cg2dTargetResidual =   /* 2d con. grad target residual  */
(PID.TID 0000.0001)                 1.000000000000000E-07
(PID.TID 0000.0001)     ;
(PID.TID 0000.0001) cg2dTargetResWunit =   /* CG2d target residual [W units] */
(PID.TID 0000.0001)                 1.000000000000000E-17
(PID.TID 0000.0001)     ;
(PID.TID 0000.0001) cg2dPreCondFreq =   /* Freq. for updating cg2d preconditioner */
(PID.TID 0000.0001)                       1
(PID.TID 0000.0001)     ;
(PID.TID 0000.0001) useSRCGSolver =  /* use single reduction CG solver(s) */
(PID.TID 0000.0001)                   F
(PID.TID 0000.0001)     ;
(PID.TID 0000.0001) printResidualFreq = /* Freq. for printing CG residual */
(PID.TID 0000.0001)                       0
(PID.TID 0000.0001)     ;
(PID.TID 0000.0001) //
(PID.TID 0000.0001) // Time stepping paramters ( PARM03 in namelist )
(PID.TID 0000.0001) //
(PID.TID 0000.0001) deltaTMom =   /* Momentum equation timestep ( s ) */
(PID.TID 0000.0001)                 1.200000000000000E+02
(PID.TID 0000.0001)     ;
(PID.TID 0000.0001) deltaTFreeSurf = /* FreeSurface equation timestep ( s ) */
(PID.TID 0000.0001)                 1.200000000000000E+02
(PID.TID 0000.0001)     ;
(PID.TID 0000.0001) dTtracerLev =  /* Tracer equation timestep ( s ) */
(PID.TID 0000.0001)    20 @  1.200000000000000E+02              /* K =  1: 20 */
(PID.TID 0000.0001)     ;
(PID.TID 0000.0001) deltaTClock  =   /* Model clock timestep ( s ) */
(PID.TID 0000.0001)                 1.200000000000000E+02
(PID.TID 0000.0001)     ;
(PID.TID 0000.0001) cAdjFreq =   /* Convective adjustment interval ( s ) */
(PID.TID 0000.0001)                 0.000000000000000E+00
(PID.TID 0000.0001)     ;
(PID.TID 0000.0001) momForcingOutAB = /* =1: take Momentum Forcing out of Adams-Bash. stepping */
(PID.TID 0000.0001)                       1
(PID.TID 0000.0001)     ;
(PID.TID 0000.0001) tracForcingOutAB = /* =1: take T,S,pTr Forcing out of Adams-Bash. stepping */
(PID.TID 0000.0001)                       1
(PID.TID 0000.0001)     ;
(PID.TID 0000.0001) momDissip_In_AB = /* put Dissipation Tendency in Adams-Bash. stepping */
(PID.TID 0000.0001)                   T
(PID.TID 0000.0001)     ;
(PID.TID 0000.0001) doAB_onGtGs = /* apply AB on Tendencies (rather than on T,S)*/
(PID.TID 0000.0001)                   T
(PID.TID 0000.0001)     ;
(PID.TID 0000.0001) abEps =   /* Adams-Bashforth-2 stabilizing weight */
(PID.TID 0000.0001)                 1.000000000000000E-01
(PID.TID 0000.0001)     ;
(PID.TID 0000.0001) pickupStrictlyMatch= /* stop if pickup do not strictly match */
(PID.TID 0000.0001)                   T
(PID.TID 0000.0001)     ;
(PID.TID 0000.0001) nIter0   =   /* Run starting timestep number */
(PID.TID 0000.0001)                       0
(PID.TID 0000.0001)     ;
(PID.TID 0000.0001) nTimeSteps = /* Number of timesteps */
(PID.TID 0000.0001)                      15
(PID.TID 0000.0001)     ;
(PID.TID 0000.0001) nEndIter =   /* Run ending timestep number */
(PID.TID 0000.0001)                      15
(PID.TID 0000.0001)     ;
(PID.TID 0000.0001) baseTime =   /* Model base time ( s ) */
(PID.TID 0000.0001)                 0.000000000000000E+00
(PID.TID 0000.0001)     ;
(PID.TID 0000.0001) startTime =  /* Run start time ( s ) */
(PID.TID 0000.0001)                 0.000000000000000E+00
(PID.TID 0000.0001)     ;
(PID.TID 0000.0001) endTime  =   /* Integration ending time ( s ) */
(PID.TID 0000.0001)                 1.800000000000000E+03
(PID.TID 0000.0001)     ;
(PID.TID 0000.0001) pChkPtFreq = /* Permanent restart/pickup file interval ( s ) */
(PID.TID 0000.0001)                 0.000000000000000E+00
(PID.TID 0000.0001)     ;
(PID.TID 0000.0001) chkPtFreq  = /* Rolling restart/pickup file interval ( s ) */
(PID.TID 0000.0001)                 0.000000000000000E+00
(PID.TID 0000.0001)     ;
(PID.TID 0000.0001) pickup_write_mdsio =   /* Model IO flag. */
(PID.TID 0000.0001)                   T
(PID.TID 0000.0001)     ;
(PID.TID 0000.0001) pickup_read_mdsio =   /* Model IO flag. */
(PID.TID 0000.0001)                   T
(PID.TID 0000.0001)     ;
(PID.TID 0000.0001) pickup_write_mnc =   /* Model IO flag. */
(PID.TID 0000.0001)                   F
(PID.TID 0000.0001)     ;
(PID.TID 0000.0001) pickup_read_mnc =   /* Model IO flag. */
(PID.TID 0000.0001)                   F
(PID.TID 0000.0001)     ;
(PID.TID 0000.0001) pickup_write_immed =   /* Model IO flag. */
(PID.TID 0000.0001)                   F
(PID.TID 0000.0001)     ;
(PID.TID 0000.0001) writePickupAtEnd =   /* Model IO flag. */
(PID.TID 0000.0001)                   F
(PID.TID 0000.0001)     ;
(PID.TID 0000.0001) dumpFreq =   /* Model state write out interval ( s ). */
(PID.TID 0000.0001)                 0.000000000000000E+00
(PID.TID 0000.0001)     ;
(PID.TID 0000.0001) dumpInitAndLast= /* write out Initial & Last iter. model state */
(PID.TID 0000.0001)                   T
(PID.TID 0000.0001)     ;
(PID.TID 0000.0001) snapshot_mdsio =   /* Model IO flag. */
(PID.TID 0000.0001)                   F
(PID.TID 0000.0001)     ;
(PID.TID 0000.0001) snapshot_mnc =   /* Model IO flag. */
(PID.TID 0000.0001)                   T
(PID.TID 0000.0001)     ;
(PID.TID 0000.0001) monitorFreq =   /* Monitor output interval ( s ). */
(PID.TID 0000.0001)                 1.000000000000000E+00
(PID.TID 0000.0001)     ;
(PID.TID 0000.0001) monitorSelect = /* select group of variables to monitor */
(PID.TID 0000.0001)                       2
(PID.TID 0000.0001)     ;
(PID.TID 0000.0001) monitor_stdio =   /* Model IO flag. */
(PID.TID 0000.0001)                   T
(PID.TID 0000.0001)     ;
(PID.TID 0000.0001) monitor_mnc =   /* Model IO flag. */
(PID.TID 0000.0001)                   F
(PID.TID 0000.0001)     ;
(PID.TID 0000.0001) externForcingPeriod =   /* forcing period (s) */
(PID.TID 0000.0001)                 0.000000000000000E+00
(PID.TID 0000.0001)     ;
(PID.TID 0000.0001) externForcingCycle =   /* period of the cyle (s). */
(PID.TID 0000.0001)                 0.000000000000000E+00
(PID.TID 0000.0001)     ;
(PID.TID 0000.0001) tauThetaClimRelax =   /* relaxation time scale (s) */
(PID.TID 0000.0001)                 0.000000000000000E+00
(PID.TID 0000.0001)     ;
(PID.TID 0000.0001) tauSaltClimRelax =   /* relaxation time scale (s) */
(PID.TID 0000.0001)                 0.000000000000000E+00
(PID.TID 0000.0001)     ;
(PID.TID 0000.0001) latBandClimRelax =   /* max. Lat. where relaxation */
(PID.TID 0000.0001)                 1.800000000000000E+02
(PID.TID 0000.0001)     ;
(PID.TID 0000.0001) //
(PID.TID 0000.0001) // Gridding paramters ( PARM04 in namelist )
(PID.TID 0000.0001) //
(PID.TID 0000.0001) usingCartesianGrid = /* Cartesian coordinates flag ( True/False ) */
(PID.TID 0000.0001)                   F
(PID.TID 0000.0001)     ;
(PID.TID 0000.0001) usingCylindricalGrid = /* Cylindrical coordinates flag ( True/False ) */
(PID.TID 0000.0001)                   F
(PID.TID 0000.0001)     ;
(PID.TID 0000.0001) usingSphericalPolarGrid = /* Spherical coordinates flag ( True/False ) */
(PID.TID 0000.0001)                   F
(PID.TID 0000.0001)     ;
(PID.TID 0000.0001) usingCurvilinearGrid = /* Curvilinear coordinates flag ( True/False ) */
(PID.TID 0000.0001)                   T
(PID.TID 0000.0001)     ;
(PID.TID 0000.0001) selectSigmaCoord = /* Hybrid-Sigma Vert. Coordinate option */
(PID.TID 0000.0001)                       0
(PID.TID 0000.0001)     ;
(PID.TID 0000.0001) Ro_SeaLevel = /* r(1) ( units of r == Pa ) */
(PID.TID 0000.0001)                 1.010800000000000E+05
(PID.TID 0000.0001)     ;
(PID.TID 0000.0001) rSigmaBnd = /* r/sigma transition ( units of r == Pa ) */
(PID.TID 0000.0001)                 1.234567000000000E+05
(PID.TID 0000.0001)     ;
(PID.TID 0000.0001) rkSign =   /* index orientation relative to vertical coordinate */
(PID.TID 0000.0001)                -1.000000000000000E+00
(PID.TID 0000.0001)     ;
(PID.TID 0000.0001) gravitySign = /* gravity orientation relative to vertical coordinate */
(PID.TID 0000.0001)                 1.000000000000000E+00
(PID.TID 0000.0001)     ;
(PID.TID 0000.0001) mass2rUnit = /* convert mass per unit area [kg/m2] to r-units [Pa] */
(PID.TID 0000.0001)                 9.810000000000000E+00
(PID.TID 0000.0001)     ;
(PID.TID 0000.0001) rUnit2mass = /* convert r-units [Pa] to mass per unit area [kg/m2] */
(PID.TID 0000.0001)                 1.019367991845056E-01
(PID.TID 0000.0001)     ;
(PID.TID 0000.0001) drC =   /* C spacing ( units of r ) */
(PID.TID 0000.0001)                 2.527000000000000E+03,      /* K =  1 */
(PID.TID 0000.0001)    19 @  5.054000000000000E+03              /* K =  2: 20 */
(PID.TID 0000.0001)     ;
(PID.TID 0000.0001) drF =   /* W spacing ( units of r ) */
(PID.TID 0000.0001)    20 @  5.054000000000000E+03              /* K =  1: 20 */
(PID.TID 0000.0001)     ;
(PID.TID 0000.0001) radius_fromHorizGrid = /* sphere Radius of input horiz. grid */
(PID.TID 0000.0001)                 6.370000000000000E+06
(PID.TID 0000.0001)     ;
(PID.TID 0000.0001) rSphere =  /* Radius ( ignored - cartesian, m - spherical ) */
(PID.TID 0000.0001)                 6.370000000000000E+06
(PID.TID 0000.0001)     ;
(PID.TID 0000.0001) deepAtmosphere = /* Deep/Shallow Atmosphere flag (True/False) */
(PID.TID 0000.0001)                   F
(PID.TID 0000.0001)     ;
(PID.TID 0000.0001) xC =  /* xC(:,1,:,1) : P-point X coord ( deg. or m if cartesian) */
(PID.TID 0000.0001)                -4.439521994760536E+01,      /* I =  1 */
(PID.TID 0000.0001)                -4.295641272275883E+01,      /* I =  2 */
(PID.TID 0000.0001)                -4.122055553388957E+01,      /* I =  3 */
(PID.TID 0000.0001)      . . .
(PID.TID 0000.0001)                 8.070819219728060E+01,      /* I = 46 */
(PID.TID 0000.0001)                 8.439652466417766E+01,      /* I = 47 */
(PID.TID 0000.0001)                 8.812739148696656E+01,      /* I = 48 */
(PID.TID 0000.0001)                 9.187260851303344E+01,      /* I = 49 */
(PID.TID 0000.0001)                 9.560347533582234E+01,      /* I = 50 */
(PID.TID 0000.0001)                 9.929180780271940E+01,      /* I = 51 */
(PID.TID 0000.0001)      . . .
(PID.TID 0000.0001)                 1.321863035748696E+02,      /* I = 94 */
(PID.TID 0000.0001)                 1.337919453120370E+02,      /* I = 95 */
(PID.TID 0000.0001)                 1.350000000000000E+02,      /* I = 96 */
(PID.TID 0000.0001)                 1.356047800523947E+02,      /* I = 97 */
(PID.TID 0000.0001)                 1.358367907661329E+02,      /* I = 98 */
(PID.TID 0000.0001)                 1.359720382181193E+02,      /* I = 99 */
(PID.TID 0000.0001)      . . .
(PID.TID 0000.0001)                -1.336511021209287E+02,      /* I =142 */
(PID.TID 0000.0001)                -1.336469399409420E+02,      /* I =143 */
(PID.TID 0000.0001)                -1.336449032499283E+02,      /* I =144 */
(PID.TID 0000.0001)                -1.336449032499283E+02,      /* I =145 */
(PID.TID 0000.0001)                -1.336469399409420E+02,      /* I =146 */
(PID.TID 0000.0001)                -1.336511021209287E+02,      /* I =147 */
(PID.TID 0000.0001)      . . .
(PID.TID 0000.0001)                 1.378136964251304E+02,      /* I =190 */
(PID.TID 0000.0001)                 1.362080546879630E+02,      /* I =191 */
(PID.TID 0000.0001)                 1.350000000000000E+02       /* I =192 */
(PID.TID 0000.0001)     ;
(PID.TID 0000.0001) yC =  /* yC(1,:,1,:) : P-point Y coord ( deg. or m if cartesian) */
(PID.TID 0000.0001)                -3.497677942598243E+01,      /* J =  1 */
(PID.TID 0000.0001)                -3.374005967394886E+01,      /* J =  2 */
(PID.TID 0000.0001)                -3.220655175667454E+01,      /* J =  3 */
(PID.TID 0000.0001)                -3.045756348838641E+01,      /* J =  4 */
(PID.TID 0000.0001)                -2.853728129852918E+01,      /* J =  5 */
(PID.TID 0000.0001)                -2.647426640173173E+01,      /* J =  6 */
(PID.TID 0000.0001)                -2.428936657094636E+01,      /* J =  7 */
(PID.TID 0000.0001)                -2.199915808312262E+01,      /* J =  8 */
(PID.TID 0000.0001)                -1.961768597440146E+01,      /* J =  9 */
(PID.TID 0000.0001)                -1.715743888281371E+01,      /* J = 10 */
(PID.TID 0000.0001)                -1.462993396899330E+01,      /* J = 11 */
(PID.TID 0000.0001)                -1.204608340464756E+01,      /* J = 12 */
(PID.TID 0000.0001)                -9.416429130284818E+00,      /* J = 13 */
(PID.TID 0000.0001)                -6.751293662992216E+00,      /* J = 14 */
(PID.TID 0000.0001)                -4.060875511835959E+00,      /* J = 15 */
(PID.TID 0000.0001)                -1.355307764409121E+00,      /* J = 16 */
(PID.TID 0000.0001)                 1.355307764409121E+00,      /* J = 17 */
(PID.TID 0000.0001)                 4.060875511835959E+00,      /* J = 18 */
(PID.TID 0000.0001)                 6.751293662992216E+00,      /* J = 19 */
(PID.TID 0000.0001)                 9.416429130284818E+00,      /* J = 20 */
(PID.TID 0000.0001)                 1.204608340464756E+01,      /* J = 21 */
(PID.TID 0000.0001)                 1.462993396899330E+01,      /* J = 22 */
(PID.TID 0000.0001)                 1.715743888281371E+01,      /* J = 23 */
(PID.TID 0000.0001)                 1.961768597440146E+01,      /* J = 24 */
(PID.TID 0000.0001)                 2.199915808312262E+01,      /* J = 25 */
(PID.TID 0000.0001)                 2.428936657094636E+01,      /* J = 26 */
(PID.TID 0000.0001)                 2.647426640173173E+01,      /* J = 27 */
(PID.TID 0000.0001)                 2.853728129852918E+01,      /* J = 28 */
(PID.TID 0000.0001)                 3.045756348838641E+01,      /* J = 29 */
(PID.TID 0000.0001)                 3.220655175667454E+01,      /* J = 30 */
(PID.TID 0000.0001)                 3.374005967394886E+01,      /* J = 31 */
(PID.TID 0000.0001)                 3.497677942598243E+01       /* J = 32 */
(PID.TID 0000.0001)     ;
(PID.TID 0000.0001) rcoord = /* P-point R coordinate (  units of r ) */
(PID.TID 0000.0001)                 9.855300000000000E+04,      /* K =  1 */
(PID.TID 0000.0001)                 9.349900000000000E+04,      /* K =  2 */
(PID.TID 0000.0001)                 8.844500000000000E+04,      /* K =  3 */
(PID.TID 0000.0001)                 8.339100000000000E+04,      /* K =  4 */
(PID.TID 0000.0001)                 7.833700000000000E+04,      /* K =  5 */
(PID.TID 0000.0001)                 7.328300000000000E+04,      /* K =  6 */
(PID.TID 0000.0001)                 6.822900000000000E+04,      /* K =  7 */
(PID.TID 0000.0001)                 6.317500000000000E+04,      /* K =  8 */
(PID.TID 0000.0001)                 5.812100000000000E+04,      /* K =  9 */
(PID.TID 0000.0001)                 5.306700000000000E+04,      /* K = 10 */
(PID.TID 0000.0001)                 4.801300000000000E+04,      /* K = 11 */
(PID.TID 0000.0001)                 4.295900000000000E+04,      /* K = 12 */
(PID.TID 0000.0001)                 3.790500000000000E+04,      /* K = 13 */
(PID.TID 0000.0001)                 3.285100000000000E+04,      /* K = 14 */
(PID.TID 0000.0001)                 2.779700000000000E+04,      /* K = 15 */
(PID.TID 0000.0001)                 2.274300000000000E+04,      /* K = 16 */
(PID.TID 0000.0001)                 1.768900000000000E+04,      /* K = 17 */
(PID.TID 0000.0001)                 1.263500000000000E+04,      /* K = 18 */
(PID.TID 0000.0001)                 7.581000000000000E+03,      /* K = 19 */
(PID.TID 0000.0001)                 2.527000000000000E+03       /* K = 20 */
(PID.TID 0000.0001)     ;
(PID.TID 0000.0001) rF =   /* W-Interf. R coordinate (  units of r ) */
(PID.TID 0000.0001)                 1.010800000000000E+05,      /* K =  1 */
(PID.TID 0000.0001)                 9.602600000000000E+04,      /* K =  2 */
(PID.TID 0000.0001)                 9.097200000000000E+04,      /* K =  3 */
(PID.TID 0000.0001)                 8.591800000000000E+04,      /* K =  4 */
(PID.TID 0000.0001)                 8.086400000000000E+04,      /* K =  5 */
(PID.TID 0000.0001)                 7.581000000000000E+04,      /* K =  6 */
(PID.TID 0000.0001)                 7.075600000000000E+04,      /* K =  7 */
(PID.TID 0000.0001)                 6.570200000000000E+04,      /* K =  8 */
(PID.TID 0000.0001)                 6.064800000000000E+04,      /* K =  9 */
(PID.TID 0000.0001)                 5.559400000000000E+04,      /* K = 10 */
(PID.TID 0000.0001)                 5.054000000000000E+04,      /* K = 11 */
(PID.TID 0000.0001)                 4.548600000000000E+04,      /* K = 12 */
(PID.TID 0000.0001)                 4.043200000000000E+04,      /* K = 13 */
(PID.TID 0000.0001)                 3.537800000000000E+04,      /* K = 14 */
(PID.TID 0000.0001)                 3.032400000000000E+04,      /* K = 15 */
(PID.TID 0000.0001)                 2.527000000000000E+04,      /* K = 16 */
(PID.TID 0000.0001)                 2.021600000000000E+04,      /* K = 17 */
(PID.TID 0000.0001)                 1.516200000000000E+04,      /* K = 18 */
(PID.TID 0000.0001)                 1.010800000000000E+04,      /* K = 19 */
(PID.TID 0000.0001)                 5.054000000000000E+03,      /* K = 20 */
(PID.TID 0000.0001)                 0.000000000000000E+00       /* K = 21 */
(PID.TID 0000.0001)     ;
(PID.TID 0000.0001) deepFacC = /* deep-model grid factor @ cell-Center (-) */
(PID.TID 0000.0001)    20 @  1.000000000000000E+00              /* K =  1: 20 */
(PID.TID 0000.0001)     ;
(PID.TID 0000.0001) deepFacF = /* deep-model grid factor @ W-Interface (-) */
(PID.TID 0000.0001)    21 @  1.000000000000000E+00              /* K =  1: 21 */
(PID.TID 0000.0001)     ;
(PID.TID 0000.0001) rVel2wUnit = /* convert units: rVel -> wSpeed (=1 if z-coord)*/
(PID.TID 0000.0001)                 8.299088287772964E-02,      /* K =  1 */
(PID.TID 0000.0001)                 8.638890293216914E-02,      /* K =  2 */
(PID.TID 0000.0001)                 9.041617201713111E-02,      /* K =  3 */
(PID.TID 0000.0001)                 9.483581781060731E-02,      /* K =  4 */
(PID.TID 0000.0001)                 9.988353290717637E-02,      /* K =  5 */
(PID.TID 0000.0001)                 1.056649626927390E-01,      /* K =  6 */
(PID.TID 0000.0001)                 1.121257692218901E-01,      /* K =  7 */
(PID.TID 0000.0001)                 1.194051469114864E-01,      /* K =  8 */
(PID.TID 0000.0001)                 1.276847289147875E-01,      /* K =  9 */
(PID.TID 0000.0001)                 1.372065176022861E-01,      /* K = 10 */
(PID.TID 0000.0001)                 1.483009141465203E-01,      /* K = 11 */
(PID.TID 0000.0001)                 1.614322681434870E-01,      /* K = 12 */
(PID.TID 0000.0001)                 1.774159962051914E-01,      /* K = 13 */
(PID.TID 0000.0001)                 1.973209376690589E-01,      /* K = 14 */
(PID.TID 0000.0001)                 2.230316384843163E-01,      /* K = 15 */
(PID.TID 0000.0001)                 2.575680599426761E-01,      /* K = 16 */
(PID.TID 0000.0001)                 3.091736104663851E-01,      /* K = 17 */
(PID.TID 0000.0001)                 3.932038624176537E-01,      /* K = 18 */
(PID.TID 0000.0001)                 5.651163998376351E-01,      /* K = 19 */
(PID.TID 0000.0001)                 1.030736779539694E+00,      /* K = 20 */
(PID.TID 0000.0001)                 1.000000000000000E+00       /* K = 21 */
(PID.TID 0000.0001)     ;
(PID.TID 0000.0001) wUnit2rVel = /* convert units: wSpeed -> rVel (=1 if z-coord)*/
(PID.TID 0000.0001)                 1.204951634835960E+01,      /* K =  1 */
(PID.TID 0000.0001)                 1.157556081925453E+01,      /* K =  2 */
(PID.TID 0000.0001)                 1.105996834073589E+01,      /* K =  3 */
(PID.TID 0000.0001)                 1.054453921615416E+01,      /* K =  4 */
(PID.TID 0000.0001)                 1.001166028968277E+01,      /* K =  5 */
(PID.TID 0000.0001)                 9.463875011321207E+00,      /* K =  6 */
(PID.TID 0000.0001)                 8.918556429441841E+00,      /* K =  7 */
(PID.TID 0000.0001)                 8.374848370156839E+00,      /* K =  8 */
(PID.TID 0000.0001)                 7.831790132611446E+00,      /* K =  9 */
(PID.TID 0000.0001)                 7.288283512148101E+00,      /* K = 10 */
(PID.TID 0000.0001)                 6.743046769165609E+00,      /* K = 11 */
(PID.TID 0000.0001)                 6.194548410303959E+00,      /* K = 12 */
(PID.TID 0000.0001)                 5.636470337451675E+00,      /* K = 13 */
(PID.TID 0000.0001)                 5.067885911211165E+00,      /* K = 14 */
(PID.TID 0000.0001)                 4.483668804999254E+00,      /* K = 15 */
(PID.TID 0000.0001)                 3.882468968483740E+00,      /* K = 16 */
(PID.TID 0000.0001)                 3.234428703314977E+00,      /* K = 17 */
(PID.TID 0000.0001)                 2.543210012870674E+00,      /* K = 18 */
(PID.TID 0000.0001)                 1.769546946942811E+00,      /* K = 19 */
(PID.TID 0000.0001)                 9.701797974518569E-01,      /* K = 20 */
(PID.TID 0000.0001)                 1.000000000000000E+00       /* K = 21 */
(PID.TID 0000.0001)     ;
(PID.TID 0000.0001) dBdrRef = /* Vertical grad. of reference buoyancy [(m/s/r)^2] */
(PID.TID 0000.0001)                 0.000000000000000E+00,      /* K =  1 */
(PID.TID 0000.0001)                 1.168695101832678E-06,      /* K =  2 */
(PID.TID 0000.0001)                 1.214731933662585E-06,      /* K =  3 */
(PID.TID 0000.0001)                 1.265376800132251E-06,      /* K =  4 */
(PID.TID 0000.0001)                 1.982108400861510E-06,      /* K =  5 */
(PID.TID 0000.0001)                 2.075677388535634E-06,      /* K =  6 */
(PID.TID 0000.0001)                 2.180603685167407E-06,      /* K =  7 */
(PID.TID 0000.0001)                 2.299237756774469E-06,      /* K =  8 */
(PID.TID 0000.0001)                 2.434651197433197E-06,      /* K =  9 */
(PID.TID 0000.0001)                 2.590943086329596E-06,      /* K = 10 */
(PID.TID 0000.0001)                 2.773719906973164E-06,      /* K = 11 */
(PID.TID 0000.0001)                 2.990877444713175E-06,      /* K = 12 */
(PID.TID 0000.0001)                 3.796258619174570E-06,      /* K = 13 */
(PID.TID 0000.0001)                 4.177197220701854E-06,      /* K = 14 */
(PID.TID 0000.0001)                 5.998085821035754E-06,      /* K = 15 */
(PID.TID 0000.0001)                 6.836650610103148E-06,      /* K = 16 */
(PID.TID 0000.0001)                 1.962224720100582E-05,      /* K = 17 */
(PID.TID 0000.0001)                 2.855207349352877E-05,      /* K = 18 */
(PID.TID 0000.0001)                 1.182300266773325E-04,      /* K = 19 */
(PID.TID 0000.0001)                 2.229643522577340E-04       /* K = 20 */
(PID.TID 0000.0001)     ;
(PID.TID 0000.0001) rotateGrid = /* use rotated grid ( True/False ) */
(PID.TID 0000.0001)                   F
(PID.TID 0000.0001)     ;
(PID.TID 0000.0001) phiEuler = /* Euler angle, rotation about original z-coordinate [rad] */
(PID.TID 0000.0001)                 0.000000000000000E+00
(PID.TID 0000.0001)     ;
(PID.TID 0000.0001) thetaEuler = /* Euler angle, rotation about new x-coordinate [rad] */
(PID.TID 0000.0001)                 0.000000000000000E+00
(PID.TID 0000.0001)     ;
(PID.TID 0000.0001) psiEuler = /* Euler angle, rotation about new z-coordinate [rad] */
(PID.TID 0000.0001)                 0.000000000000000E+00
(PID.TID 0000.0001)     ;
(PID.TID 0000.0001) dxF =  /* dxF(:,1,:,1) ( units: m ) */
(PID.TID 0000.0001)                 1.202082051331828E+05,      /* I =  1 */
(PID.TID 0000.0001)                 1.563594089971120E+05,      /* I =  2 */
(PID.TID 0000.0001)                 1.835530058121492E+05,      /* I =  3 */
(PID.TID 0000.0001)      . . .
(PID.TID 0000.0001)                 2.978501920522794E+05,      /* I = 46 */
(PID.TID 0000.0001)                 3.000967749619962E+05,      /* I = 47 */
(PID.TID 0000.0001)                 3.012190981969055E+05,      /* I = 48 */
(PID.TID 0000.0001)                 3.012190981969055E+05,      /* I = 49 */
(PID.TID 0000.0001)                 3.000967749619962E+05,      /* I = 50 */
(PID.TID 0000.0001)                 2.978501920522794E+05,      /* I = 51 */
(PID.TID 0000.0001)      . . .
(PID.TID 0000.0001)                 1.835530058121492E+05,      /* I = 94 */
(PID.TID 0000.0001)                 1.563594089971120E+05,      /* I = 95 */
(PID.TID 0000.0001)                 1.202082051331828E+05,      /* I = 96 */
(PID.TID 0000.0001)                 1.202082051331828E+05,      /* I = 97 */
(PID.TID 0000.0001)                 1.563594089971120E+05,      /* I = 98 */
(PID.TID 0000.0001)                 1.835530058121492E+05,      /* I = 99 */
(PID.TID 0000.0001)      . . .
(PID.TID 0000.0001)                 2.978501920522794E+05,      /* I =142 */
(PID.TID 0000.0001)                 3.000967749619962E+05,      /* I =143 */
(PID.TID 0000.0001)                 3.012190981969055E+05,      /* I =144 */
(PID.TID 0000.0001)                 3.012190981969055E+05,      /* I =145 */
(PID.TID 0000.0001)                 3.000967749619962E+05,      /* I =146 */
(PID.TID 0000.0001)                 2.978501920522794E+05,      /* I =147 */
(PID.TID 0000.0001)      . . .
(PID.TID 0000.0001)                 1.835530058121492E+05,      /* I =190 */
(PID.TID 0000.0001)                 1.563594089971120E+05,      /* I =191 */
(PID.TID 0000.0001)                 1.202082051331828E+05       /* I =192 */
(PID.TID 0000.0001)     ;
(PID.TID 0000.0001) dxF =  /* dxF(1,:,1,:) ( units: m ) */
(PID.TID 0000.0001)                 1.202082051331828E+05,      /* J =  1 */
(PID.TID 0000.0001)                 1.572908084538706E+05,      /* J =  2 */
(PID.TID 0000.0001)                 1.840412227747703E+05,      /* J =  3 */
(PID.TID 0000.0001)                 2.048868197919576E+05,      /* J =  4 */
(PID.TID 0000.0001)                 2.220405216043041E+05,      /* J =  5 */
(PID.TID 0000.0001)                 2.365892017348392E+05,      /* J =  6 */
(PID.TID 0000.0001)                 2.491250781852558E+05,      /* J =  7 */
(PID.TID 0000.0001)                 2.599949918261881E+05,      /* J =  8 */
(PID.TID 0000.0001)                 2.694110134598581E+05,      /* J =  9 */
(PID.TID 0000.0001)                 2.775055554645015E+05,      /* J = 10 */
(PID.TID 0000.0001)                 2.843615645344775E+05,      /* J = 11 */
(PID.TID 0000.0001)                 2.900303768613599E+05,      /* J = 12 */
(PID.TID 0000.0001)                 2.945429307892709E+05,      /* J = 13 */
(PID.TID 0000.0001)                 2.979171143158405E+05,      /* J = 14 */
(PID.TID 0000.0001)                 3.001626787528886E+05,      /* J = 15 */
(PID.TID 0000.0001)     2 @  3.012844832048790E+05,             /* J = 16: 17 */
(PID.TID 0000.0001)                 3.001626787528886E+05,      /* J = 18 */
(PID.TID 0000.0001)                 2.979171143158405E+05,      /* J = 19 */
(PID.TID 0000.0001)                 2.945429307892709E+05,      /* J = 20 */
(PID.TID 0000.0001)                 2.900303768613599E+05,      /* J = 21 */
(PID.TID 0000.0001)                 2.843615645344775E+05,      /* J = 22 */
(PID.TID 0000.0001)                 2.775055554645015E+05,      /* J = 23 */
(PID.TID 0000.0001)                 2.694110134598581E+05,      /* J = 24 */
(PID.TID 0000.0001)                 2.599949918261881E+05,      /* J = 25 */
(PID.TID 0000.0001)                 2.491250781852558E+05,      /* J = 26 */
(PID.TID 0000.0001)                 2.365892017348392E+05,      /* J = 27 */
(PID.TID 0000.0001)                 2.220405216043041E+05,      /* J = 28 */
(PID.TID 0000.0001)                 2.048868197919576E+05,      /* J = 29 */
(PID.TID 0000.0001)                 1.840412227747703E+05,      /* J = 30 */
(PID.TID 0000.0001)                 1.572908084538706E+05,      /* J = 31 */
(PID.TID 0000.0001)                 1.202082051331828E+05       /* J = 32 */
(PID.TID 0000.0001)     ;
(PID.TID 0000.0001) dyF =  /* dyF(:,1,:,1) ( units: m ) */
(PID.TID 0000.0001)                 1.202082051331828E+05,      /* I =  1 */
(PID.TID 0000.0001)                 1.572908084538706E+05,      /* I =  2 */
(PID.TID 0000.0001)                 1.840412227747703E+05,      /* I =  3 */
(PID.TID 0000.0001)      . . .
(PID.TID 0000.0001)                 2.979171143158405E+05,      /* I = 46 */
(PID.TID 0000.0001)                 3.001626787528886E+05,      /* I = 47 */
(PID.TID 0000.0001)                 3.012844832048790E+05,      /* I = 48 */
(PID.TID 0000.0001)                 3.012844832048790E+05,      /* I = 49 */
(PID.TID 0000.0001)                 3.001626787528886E+05,      /* I = 50 */
(PID.TID 0000.0001)                 2.979171143158405E+05,      /* I = 51 */
(PID.TID 0000.0001)      . . .
(PID.TID 0000.0001)                 1.840412227747703E+05,      /* I = 94 */
(PID.TID 0000.0001)                 1.572908084538706E+05,      /* I = 95 */
(PID.TID 0000.0001)                 1.202082051331828E+05,      /* I = 96 */
(PID.TID 0000.0001)                 1.202082051331828E+05,      /* I = 97 */
(PID.TID 0000.0001)                 1.572908084538706E+05,      /* I = 98 */
(PID.TID 0000.0001)                 1.840412227747703E+05,      /* I = 99 */
(PID.TID 0000.0001)      . . .
(PID.TID 0000.0001)                 2.979171143158405E+05,      /* I =142 */
(PID.TID 0000.0001)                 3.001626787528886E+05,      /* I =143 */
(PID.TID 0000.0001)                 3.012844832048790E+05,      /* I =144 */
(PID.TID 0000.0001)                 3.012844832048790E+05,      /* I =145 */
(PID.TID 0000.0001)                 3.001626787528886E+05,      /* I =146 */
(PID.TID 0000.0001)                 2.979171143158405E+05,      /* I =147 */
(PID.TID 0000.0001)      . . .
(PID.TID 0000.0001)                 1.840412227747703E+05,      /* I =190 */
(PID.TID 0000.0001)                 1.572908084538706E+05,      /* I =191 */
(PID.TID 0000.0001)                 1.202082051331828E+05       /* I =192 */
(PID.TID 0000.0001)     ;
(PID.TID 0000.0001) dyF =  /* dyF(1,:,1,:) ( units: m ) */
(PID.TID 0000.0001)                 1.202082051331828E+05,      /* J =  1 */
(PID.TID 0000.0001)                 1.563594089971120E+05,      /* J =  2 */
(PID.TID 0000.0001)                 1.835530058121492E+05,      /* J =  3 */
(PID.TID 0000.0001)                 2.045883481718707E+05,      /* J =  4 */
(PID.TID 0000.0001)                 2.218350349844185E+05,      /* J =  5 */
(PID.TID 0000.0001)                 2.364352994647058E+05,      /* J =  6 */
(PID.TID 0000.0001)                 2.490022710862746E+05,      /* J =  7 */
(PID.TID 0000.0001)                 2.598919724358304E+05,      /* J =  8 */
(PID.TID 0000.0001)                 2.693210245495156E+05,      /* J =  9 */
(PID.TID 0000.0001)                 2.774243179696503E+05,      /* J = 10 */
(PID.TID 0000.0001)                 2.842862532064524E+05,      /* J = 11 */
(PID.TID 0000.0001)                 2.899590699694043E+05,      /* J = 12 */
(PID.TID 0000.0001)                 2.944742915095688E+05,      /* J = 13 */
(PID.TID 0000.0001)                 2.978501920522794E+05,      /* J = 14 */
(PID.TID 0000.0001)                 3.000967749619962E+05,      /* J = 15 */
(PID.TID 0000.0001)     2 @  3.012190981969055E+05,             /* J = 16: 17 */
(PID.TID 0000.0001)                 3.000967749619962E+05,      /* J = 18 */
(PID.TID 0000.0001)                 2.978501920522794E+05,      /* J = 19 */
(PID.TID 0000.0001)                 2.944742915095688E+05,      /* J = 20 */
(PID.TID 0000.0001)                 2.899590699694043E+05,      /* J = 21 */
(PID.TID 0000.0001)                 2.842862532064524E+05,      /* J = 22 */
(PID.TID 0000.0001)                 2.774243179696503E+05,      /* J = 23 */
(PID.TID 0000.0001)                 2.693210245495156E+05,      /* J = 24 */
(PID.TID 0000.0001)                 2.598919724358304E+05,      /* J = 25 */
(PID.TID 0000.0001)                 2.490022710862746E+05,      /* J = 26 */
(PID.TID 0000.0001)                 2.364352994647058E+05,      /* J = 27 */
(PID.TID 0000.0001)                 2.218350349844185E+05,      /* J = 28 */
(PID.TID 0000.0001)                 2.045883481718707E+05,      /* J = 29 */
(PID.TID 0000.0001)                 1.835530058121492E+05,      /* J = 30 */
(PID.TID 0000.0001)                 1.563594089971120E+05,      /* J = 31 */
(PID.TID 0000.0001)                 1.202082051331828E+05       /* J = 32 */
(PID.TID 0000.0001)     ;
(PID.TID 0000.0001) dxG =  /* dxG(:,1,:,1) ( units: m ) */
(PID.TID 0000.0001)                 1.009837800879055E+05,      /* I =  1 */
(PID.TID 0000.0001)                 1.534505834330338E+05,      /* I =  2 */
(PID.TID 0000.0001)                 1.823321598773926E+05,      /* I =  3 */
(PID.TID 0000.0001)      . . .
(PID.TID 0000.0001)                 2.977867909042096E+05,      /* I = 46 */
(PID.TID 0000.0001)                 3.000380090330854E+05,      /* I = 47 */
(PID.TID 0000.0001)                 3.011625828699101E+05,      /* I = 48 */
(PID.TID 0000.0001)                 3.011625828699101E+05,      /* I = 49 */
(PID.TID 0000.0001)                 3.000380090330854E+05,      /* I = 50 */
(PID.TID 0000.0001)                 2.977867909042096E+05,      /* I = 51 */
(PID.TID 0000.0001)      . . .
(PID.TID 0000.0001)                 1.823321598773926E+05,      /* I = 94 */
(PID.TID 0000.0001)                 1.534505834330338E+05,      /* I = 95 */
(PID.TID 0000.0001)                 1.009837800879055E+05,      /* I = 96 */
(PID.TID 0000.0001)                 1.009837800879055E+05,      /* I = 97 */
(PID.TID 0000.0001)                 1.534505834330338E+05,      /* I = 98 */
(PID.TID 0000.0001)                 1.823321598773926E+05,      /* I = 99 */
(PID.TID 0000.0001)      . . .
(PID.TID 0000.0001)                 2.977867909042096E+05,      /* I =142 */
(PID.TID 0000.0001)                 3.000380090330854E+05,      /* I =143 */
(PID.TID 0000.0001)                 3.011625828699101E+05,      /* I =144 */
(PID.TID 0000.0001)                 3.011625828699101E+05,      /* I =145 */
(PID.TID 0000.0001)                 3.000380090330854E+05,      /* I =146 */
(PID.TID 0000.0001)                 2.977867909042096E+05,      /* I =147 */
(PID.TID 0000.0001)      . . .
(PID.TID 0000.0001)                 1.823321598773926E+05,      /* I =190 */
(PID.TID 0000.0001)                 1.534505834330338E+05,      /* I =191 */
(PID.TID 0000.0001)                 1.009837800879055E+05       /* I =192 */
(PID.TID 0000.0001)     ;
(PID.TID 0000.0001) dxG =  /* dxG(1,:,1,:) ( units: m ) */
(PID.TID 0000.0001)                 1.009837800879055E+05,      /* J =  1 */
(PID.TID 0000.0001)                 1.403701524205398E+05,      /* J =  2 */
(PID.TID 0000.0001)                 1.716197227386011E+05,      /* J =  3 */
(PID.TID 0000.0001)                 1.950254041626018E+05,      /* J =  4 */
(PID.TID 0000.0001)                 2.138410773065497E+05,      /* J =  5 */
(PID.TID 0000.0001)                 2.295958105911512E+05,      /* J =  6 */
(PID.TID 0000.0001)                 2.430829951739083E+05,      /* J =  7 */
(PID.TID 0000.0001)                 2.547526806712889E+05,      /* J =  8 */
(PID.TID 0000.0001)                 2.648750305193301E+05,      /* J =  9 */
(PID.TID 0000.0001)                 2.736173771018112E+05,      /* J = 10 */
(PID.TID 0000.0001)                 2.810845823202647E+05,      /* J = 11 */
(PID.TID 0000.0001)                 2.873420591008078E+05,      /* J = 12 */
(PID.TID 0000.0001)                 2.924298293668651E+05,      /* J = 13 */
(PID.TID 0000.0001)                 2.963715635865306E+05,      /* J = 14 */
(PID.TID 0000.0001)                 2.991805843171258E+05,      /* J = 15 */
(PID.TID 0000.0001)                 3.008638765647886E+05,      /* J = 16 */
(PID.TID 0000.0001)                 3.014246674484008E+05,      /* J = 17 */
(PID.TID 0000.0001)                 3.008638765647886E+05,      /* J = 18 */
(PID.TID 0000.0001)                 2.991805843171258E+05,      /* J = 19 */
(PID.TID 0000.0001)                 2.963715635865306E+05,      /* J = 20 */
(PID.TID 0000.0001)                 2.924298293668651E+05,      /* J = 21 */
(PID.TID 0000.0001)                 2.873420591008078E+05,      /* J = 22 */
(PID.TID 0000.0001)                 2.810845823202647E+05,      /* J = 23 */
(PID.TID 0000.0001)                 2.736173771018112E+05,      /* J = 24 */
(PID.TID 0000.0001)                 2.648750305193301E+05,      /* J = 25 */
(PID.TID 0000.0001)                 2.547526806712889E+05,      /* J = 26 */
(PID.TID 0000.0001)                 2.430829951739083E+05,      /* J = 27 */
(PID.TID 0000.0001)                 2.295958105911512E+05,      /* J = 28 */
(PID.TID 0000.0001)                 2.138410773065497E+05,      /* J = 29 */
(PID.TID 0000.0001)                 1.950254041626018E+05,      /* J = 30 */
(PID.TID 0000.0001)                 1.716197227386011E+05,      /* J = 31 */
(PID.TID 0000.0001)                 1.403701524205398E+05       /* J = 32 */
(PID.TID 0000.0001)     ;
(PID.TID 0000.0001) dyG =  /* dyG(:,1,:,1) ( units: m ) */
(PID.TID 0000.0001)                 1.009837800879055E+05,      /* I =  1 */
(PID.TID 0000.0001)                 1.403701524205398E+05,      /* I =  2 */
(PID.TID 0000.0001)                 1.716197227386011E+05,      /* I =  3 */
(PID.TID 0000.0001)      . . .
(PID.TID 0000.0001)                 2.963715635865306E+05,      /* I = 46 */
(PID.TID 0000.0001)                 2.991805843171258E+05,      /* I = 47 */
(PID.TID 0000.0001)                 3.008638765647886E+05,      /* I = 48 */
(PID.TID 0000.0001)                 3.014246674484008E+05,      /* I = 49 */
(PID.TID 0000.0001)                 3.008638765647886E+05,      /* I = 50 */
(PID.TID 0000.0001)                 2.991805843171258E+05,      /* I = 51 */
(PID.TID 0000.0001)      . . .
(PID.TID 0000.0001)                 1.950254041626018E+05,      /* I = 94 */
(PID.TID 0000.0001)                 1.716197227386011E+05,      /* I = 95 */
(PID.TID 0000.0001)                 1.403701524205398E+05,      /* I = 96 */
(PID.TID 0000.0001)                 1.009837800879055E+05,      /* I = 97 */
(PID.TID 0000.0001)                 1.403701524205398E+05,      /* I = 98 */
(PID.TID 0000.0001)                 1.716197227386011E+05,      /* I = 99 */
(PID.TID 0000.0001)      . . .
(PID.TID 0000.0001)                 2.963715635865306E+05,      /* I =142 */
(PID.TID 0000.0001)                 2.991805843171258E+05,      /* I =143 */
(PID.TID 0000.0001)                 3.008638765647886E+05,      /* I =144 */
(PID.TID 0000.0001)                 3.014246674484008E+05,      /* I =145 */
(PID.TID 0000.0001)                 3.008638765647886E+05,      /* I =146 */
(PID.TID 0000.0001)                 2.991805843171258E+05,      /* I =147 */
(PID.TID 0000.0001)      . . .
(PID.TID 0000.0001)                 1.950254041626018E+05,      /* I =190 */
(PID.TID 0000.0001)                 1.716197227386011E+05,      /* I =191 */
(PID.TID 0000.0001)                 1.403701524205398E+05       /* I =192 */
(PID.TID 0000.0001)     ;
(PID.TID 0000.0001) dyG =  /* dyG(1,:,1,:) ( units: m ) */
(PID.TID 0000.0001)                 1.009837800879055E+05,      /* J =  1 */
(PID.TID 0000.0001)                 1.534505834330338E+05,      /* J =  2 */
(PID.TID 0000.0001)                 1.823321598773926E+05,      /* J =  3 */
(PID.TID 0000.0001)                 2.038999045536999E+05,      /* J =  4 */
(PID.TID 0000.0001)                 2.213884732245467E+05,      /* J =  5 */
(PID.TID 0000.0001)                 2.361211699596122E+05,      /* J =  6 */
(PID.TID 0000.0001)                 2.487693460283865E+05,      /* J =  7 */
(PID.TID 0000.0001)                 2.597126963772147E+05,      /* J =  8 */
(PID.TID 0000.0001)                 2.691790288994575E+05,      /* J =  9 */
(PID.TID 0000.0001)                 2.773091043277394E+05,      /* J = 10 */
(PID.TID 0000.0001)                 2.841906470085516E+05,      /* J = 11 */
(PID.TID 0000.0001)                 2.898778860929753E+05,      /* J = 12 */
(PID.TID 0000.0001)                 2.944035815526416E+05,      /* J = 13 */
(PID.TID 0000.0001)                 2.977867909042096E+05,      /* J = 14 */
(PID.TID 0000.0001)                 3.000380090330854E+05,      /* J = 15 */
(PID.TID 0000.0001)     2 @  3.011625828699101E+05,             /* J = 16: 17 */
(PID.TID 0000.0001)                 3.000380090330854E+05,      /* J = 18 */
(PID.TID 0000.0001)                 2.977867909042096E+05,      /* J = 19 */
(PID.TID 0000.0001)                 2.944035815526416E+05,      /* J = 20 */
(PID.TID 0000.0001)                 2.898778860929753E+05,      /* J = 21 */
(PID.TID 0000.0001)                 2.841906470085516E+05,      /* J = 22 */
(PID.TID 0000.0001)                 2.773091043277394E+05,      /* J = 23 */
(PID.TID 0000.0001)                 2.691790288994575E+05,      /* J = 24 */
(PID.TID 0000.0001)                 2.597126963772147E+05,      /* J = 25 */
(PID.TID 0000.0001)                 2.487693460283865E+05,      /* J = 26 */
(PID.TID 0000.0001)                 2.361211699596122E+05,      /* J = 27 */
(PID.TID 0000.0001)                 2.213884732245467E+05,      /* J = 28 */
(PID.TID 0000.0001)                 2.038999045536999E+05,      /* J = 29 */
(PID.TID 0000.0001)                 1.823321598773926E+05,      /* J = 30 */
(PID.TID 0000.0001)                 1.534505834330338E+05,      /* J = 31 */
(PID.TID 0000.0001)                 1.009837800879055E+05       /* J = 32 */
(PID.TID 0000.0001)     ;
(PID.TID 0000.0001) dxC =  /* dxC(:,1,:,1) ( units: m ) */
(PID.TID 0000.0001)                 1.135373000692312E+05,      /* I =  1 */
(PID.TID 0000.0001)                 1.391343389937106E+05,      /* I =  2 */
(PID.TID 0000.0001)                 1.709574999026266E+05,      /* I =  3 */
(PID.TID 0000.0001)      . . .
(PID.TID 0000.0001)                 2.963038832565530E+05,      /* I = 46 */
(PID.TID 0000.0001)                 2.991142470004740E+05,      /* I = 47 */
(PID.TID 0000.0001)                 3.007982711627968E+05,      /* I = 48 */
(PID.TID 0000.0001)                 3.013593857228136E+05,      /* I = 49 */
(PID.TID 0000.0001)                 3.007982711627968E+05,      /* I = 50 */
(PID.TID 0000.0001)                 2.991142470004740E+05,      /* I = 51 */
(PID.TID 0000.0001)      . . .
(PID.TID 0000.0001)                 1.946503699269892E+05,      /* I = 94 */
(PID.TID 0000.0001)                 1.709574999026266E+05,      /* I = 95 */
(PID.TID 0000.0001)                 1.391343389937106E+05,      /* I = 96 */
(PID.TID 0000.0001)                 1.135373000692312E+05,      /* I = 97 */
(PID.TID 0000.0001)                 1.391343389937106E+05,      /* I = 98 */
(PID.TID 0000.0001)                 1.709574999026266E+05,      /* I = 99 */
(PID.TID 0000.0001)      . . .
(PID.TID 0000.0001)                 2.963038832565530E+05,      /* I =142 */
(PID.TID 0000.0001)                 2.991142470004740E+05,      /* I =143 */
(PID.TID 0000.0001)                 3.007982711627968E+05,      /* I =144 */
(PID.TID 0000.0001)                 3.013593857228136E+05,      /* I =145 */
(PID.TID 0000.0001)                 3.007982711627968E+05,      /* I =146 */
(PID.TID 0000.0001)                 2.991142470004740E+05,      /* I =147 */
(PID.TID 0000.0001)      . . .
(PID.TID 0000.0001)                 1.946503699269892E+05,      /* I =190 */
(PID.TID 0000.0001)                 1.709574999026266E+05,      /* I =191 */
(PID.TID 0000.0001)                 1.391343389937106E+05       /* I =192 */
(PID.TID 0000.0001)     ;
(PID.TID 0000.0001) dxC =  /* dxC(1,:,1,:) ( units: m ) */
(PID.TID 0000.0001)                 1.135373000692312E+05,      /* J =  1 */
(PID.TID 0000.0001)                 1.549545757850771E+05,      /* J =  2 */
(PID.TID 0000.0001)                 1.829777599966776E+05,      /* J =  3 */
(PID.TID 0000.0001)                 2.042717761866506E+05,      /* J =  4 */
(PID.TID 0000.0001)                 2.216367828252819E+05,      /* J =  5 */
(PID.TID 0000.0001)                 2.363029564123586E+05,      /* J =  6 */
(PID.TID 0000.0001)                 2.489113743322025E+05,      /* J =  7 */
(PID.TID 0000.0001)                 2.598293319150326E+05,      /* J =  8 */
(PID.TID 0000.0001)                 2.692787333338535E+05,      /* J =  9 */
(PID.TID 0000.0001)                 2.773972106720365E+05,      /* J = 10 */
(PID.TID 0000.0001)                 2.842706922224557E+05,      /* J = 11 */
(PID.TID 0000.0001)                 2.899523122489403E+05,      /* J = 12 */
(PID.TID 0000.0001)                 2.944741346384699E+05,      /* J = 13 */
(PID.TID 0000.0001)                 2.978547649292580E+05,      /* J = 14 */
(PID.TID 0000.0001)                 3.001044073506459E+05,      /* J = 15 */
(PID.TID 0000.0001)     2 @  3.012281885409289E+05,             /* J = 16: 17 */
(PID.TID 0000.0001)                 3.001044073506459E+05,      /* J = 18 */
(PID.TID 0000.0001)                 2.978547649292580E+05,      /* J = 19 */
(PID.TID 0000.0001)                 2.944741346384699E+05,      /* J = 20 */
(PID.TID 0000.0001)                 2.899523122489403E+05,      /* J = 21 */
(PID.TID 0000.0001)                 2.842706922224557E+05,      /* J = 22 */
(PID.TID 0000.0001)                 2.773972106720365E+05,      /* J = 23 */
(PID.TID 0000.0001)                 2.692787333338535E+05,      /* J = 24 */
(PID.TID 0000.0001)                 2.598293319150326E+05,      /* J = 25 */
(PID.TID 0000.0001)                 2.489113743322025E+05,      /* J = 26 */
(PID.TID 0000.0001)                 2.363029564123586E+05,      /* J = 27 */
(PID.TID 0000.0001)                 2.216367828252819E+05,      /* J = 28 */
(PID.TID 0000.0001)                 2.042717761866506E+05,      /* J = 29 */
(PID.TID 0000.0001)                 1.829777599966776E+05,      /* J = 30 */
(PID.TID 0000.0001)                 1.549545757850771E+05,      /* J = 31 */
(PID.TID 0000.0001)                 1.135373000692312E+05       /* J = 32 */
(PID.TID 0000.0001)     ;
(PID.TID 0000.0001) dyC =  /* dyC(:,1,:,1) ( units: m ) */
(PID.TID 0000.0001)                 1.135373000692312E+05,      /* I =  1 */
(PID.TID 0000.0001)                 1.549545757850771E+05,      /* I =  2 */
(PID.TID 0000.0001)                 1.829777599966776E+05,      /* I =  3 */
(PID.TID 0000.0001)      . . .
(PID.TID 0000.0001)                 2.978547649292580E+05,      /* I = 46 */
(PID.TID 0000.0001)                 3.001044073506459E+05,      /* I = 47 */
(PID.TID 0000.0001)                 3.012281885409289E+05,      /* I = 48 */
(PID.TID 0000.0001)                 3.012281885409289E+05,      /* I = 49 */
(PID.TID 0000.0001)                 3.001044073506459E+05,      /* I = 50 */
(PID.TID 0000.0001)                 2.978547649292580E+05,      /* I = 51 */
(PID.TID 0000.0001)      . . .
(PID.TID 0000.0001)                 1.829777599966776E+05,      /* I = 94 */
(PID.TID 0000.0001)                 1.549545757850771E+05,      /* I = 95 */
(PID.TID 0000.0001)                 1.135373000692312E+05,      /* I = 96 */
(PID.TID 0000.0001)                 1.135373000692312E+05,      /* I = 97 */
(PID.TID 0000.0001)                 1.549545757850771E+05,      /* I = 98 */
(PID.TID 0000.0001)                 1.829777599966776E+05,      /* I = 99 */
(PID.TID 0000.0001)      . . .
(PID.TID 0000.0001)                 2.978547649292580E+05,      /* I =142 */
(PID.TID 0000.0001)                 3.001044073506459E+05,      /* I =143 */
(PID.TID 0000.0001)                 3.012281885409289E+05,      /* I =144 */
(PID.TID 0000.0001)                 3.012281885409289E+05,      /* I =145 */
(PID.TID 0000.0001)                 3.001044073506459E+05,      /* I =146 */
(PID.TID 0000.0001)                 2.978547649292580E+05,      /* I =147 */
(PID.TID 0000.0001)      . . .
(PID.TID 0000.0001)                 1.829777599966776E+05,      /* I =190 */
(PID.TID 0000.0001)                 1.549545757850771E+05,      /* I =191 */
(PID.TID 0000.0001)                 1.135373000692312E+05       /* I =192 */
(PID.TID 0000.0001)     ;
(PID.TID 0000.0001) dyC =  /* dyC(1,:,1,:) ( units: m ) */
(PID.TID 0000.0001)                 1.135373000692312E+05,      /* J =  1 */
(PID.TID 0000.0001)                 1.391343389937106E+05,      /* J =  2 */
(PID.TID 0000.0001)                 1.709574999026266E+05,      /* J =  3 */
(PID.TID 0000.0001)                 1.946503699269892E+05,      /* J =  4 */
(PID.TID 0000.0001)                 2.135964483342134E+05,      /* J =  5 */
(PID.TID 0000.0001)                 2.294195678257306E+05,      /* J =  6 */
(PID.TID 0000.0001)                 2.429464709770498E+05,      /* J =  7 */
(PID.TID 0000.0001)                 2.546408290696998E+05,      /* J =  8 */
(PID.TID 0000.0001)                 2.647791839299727E+05,      /* J =  9 */
(PID.TID 0000.0001)                 2.735321911346108E+05,      /* J = 10 */
(PID.TID 0000.0001)                 2.810065951609633E+05,      /* J = 11 */
(PID.TID 0000.0001)                 2.872689479506990E+05,      /* J = 12 */
(PID.TID 0000.0001)                 2.923599955312932E+05,      /* J = 13 */
(PID.TID 0000.0001)                 2.963038832565530E+05,      /* J = 14 */
(PID.TID 0000.0001)                 2.991142470004740E+05,      /* J = 15 */
(PID.TID 0000.0001)                 3.007982711627968E+05,      /* J = 16 */
(PID.TID 0000.0001)                 3.013593857228136E+05,      /* J = 17 */
(PID.TID 0000.0001)                 3.007982711627968E+05,      /* J = 18 */
(PID.TID 0000.0001)                 2.991142470004740E+05,      /* J = 19 */
(PID.TID 0000.0001)                 2.963038832565530E+05,      /* J = 20 */
(PID.TID 0000.0001)                 2.923599955312932E+05,      /* J = 21 */
(PID.TID 0000.0001)                 2.872689479506990E+05,      /* J = 22 */
(PID.TID 0000.0001)                 2.810065951609633E+05,      /* J = 23 */
(PID.TID 0000.0001)                 2.735321911346108E+05,      /* J = 24 */
(PID.TID 0000.0001)                 2.647791839299727E+05,      /* J = 25 */
(PID.TID 0000.0001)                 2.546408290696998E+05,      /* J = 26 */
(PID.TID 0000.0001)                 2.429464709770498E+05,      /* J = 27 */
(PID.TID 0000.0001)                 2.294195678257306E+05,      /* J = 28 */
(PID.TID 0000.0001)                 2.135964483342134E+05,      /* J = 29 */
(PID.TID 0000.0001)                 1.946503699269892E+05,      /* J = 30 */
(PID.TID 0000.0001)                 1.709574999026266E+05,      /* J = 31 */
(PID.TID 0000.0001)                 1.391343389937106E+05       /* J = 32 */
(PID.TID 0000.0001)     ;
(PID.TID 0000.0001) dxV =  /* dxV(:,1,:,1) ( units: m ) */
(PID.TID 0000.0001)                 8.015229982413632E+04,      /* I =  1 */
(PID.TID 0000.0001)                 1.333130744933864E+05,      /* I =  2 */
(PID.TID 0000.0001)                 1.691744868129062E+05,      /* I =  3 */
(PID.TID 0000.0001)      . . .
(PID.TID 0000.0001)                 2.962371870847826E+05,      /* I = 46 */
(PID.TID 0000.0001)                 2.990534755671296E+05,      /* I = 47 */
(PID.TID 0000.0001)                 3.007409169495504E+05,      /* I = 48 */
(PID.TID 0000.0001)                 3.013031486919771E+05,      /* I = 49 */
(PID.TID 0000.0001)                 3.007409169495504E+05,      /* I = 50 */
(PID.TID 0000.0001)                 2.990534755671296E+05,      /* I = 51 */
(PID.TID 0000.0001)      . . .
(PID.TID 0000.0001)                 1.937548202849060E+05,      /* I = 94 */
(PID.TID 0000.0001)                 1.691744868129062E+05,      /* I = 95 */
(PID.TID 0000.0001)                 1.333130744933864E+05,      /* I = 96 */
(PID.TID 0000.0001)                 8.015229982413632E+04,      /* I = 97 */
(PID.TID 0000.0001)                 1.333130744933864E+05,      /* I = 98 */
(PID.TID 0000.0001)                 1.691744868129062E+05,      /* I = 99 */
(PID.TID 0000.0001)      . . .
(PID.TID 0000.0001)                 2.962371870847826E+05,      /* I =142 */
(PID.TID 0000.0001)                 2.990534755671296E+05,      /* I =143 */
(PID.TID 0000.0001)                 3.007409169495504E+05,      /* I =144 */
(PID.TID 0000.0001)                 3.013031486919771E+05,      /* I =145 */
(PID.TID 0000.0001)                 3.007409169495504E+05,      /* I =146 */
(PID.TID 0000.0001)                 2.990534755671296E+05,      /* I =147 */
(PID.TID 0000.0001)      . . .
(PID.TID 0000.0001)                 1.937548202849060E+05,      /* I =190 */
(PID.TID 0000.0001)                 1.691744868129062E+05,      /* I =191 */
(PID.TID 0000.0001)                 1.333130744933864E+05       /* I =192 */
(PID.TID 0000.0001)     ;
(PID.TID 0000.0001) dxV =  /* dxV(1,:,1,:) ( units: m ) */
(PID.TID 0000.0001)                 8.015229982413632E+04,      /* J =  1 */
(PID.TID 0000.0001)                 1.362652340208229E+05,      /* J =  2 */
(PID.TID 0000.0001)                 1.701080315742101E+05,      /* J =  3 */
(PID.TID 0000.0001)                 1.942331448101592E+05,      /* J =  4 */
(PID.TID 0000.0001)                 2.133486626971531E+05,      /* J =  5 */
(PID.TID 0000.0001)                 2.292584591272880E+05,      /* J =  6 */
(PID.TID 0000.0001)                 2.428369969078989E+05,      /* J =  7 */
(PID.TID 0000.0001)                 2.545652950875683E+05,      /* J =  8 */
(PID.TID 0000.0001)                 2.647274964828301E+05,      /* J =  9 */
(PID.TID 0000.0001)                 2.734980225206389E+05,      /* J = 10 */
(PID.TID 0000.0001)                 2.809856491525217E+05,      /* J = 11 */
(PID.TID 0000.0001)                 2.872580915202295E+05,      /* J = 12 */
(PID.TID 0000.0001)                 2.923567890694162E+05,      /* J = 13 */
(PID.TID 0000.0001)                 2.963063101754721E+05,      /* J = 14 */
(PID.TID 0000.0001)                 2.991205495886625E+05,      /* J = 15 */
(PID.TID 0000.0001)                 3.008068453676764E+05,      /* J = 16 */
(PID.TID 0000.0001)                 3.013686170436881E+05,      /* J = 17 */
(PID.TID 0000.0001)                 3.008068453676764E+05,      /* J = 18 */
(PID.TID 0000.0001)                 2.991205495886625E+05,      /* J = 19 */
(PID.TID 0000.0001)                 2.963063101754721E+05,      /* J = 20 */
(PID.TID 0000.0001)                 2.923567890694162E+05,      /* J = 21 */
(PID.TID 0000.0001)                 2.872580915202295E+05,      /* J = 22 */
(PID.TID 0000.0001)                 2.809856491525217E+05,      /* J = 23 */
(PID.TID 0000.0001)                 2.734980225206389E+05,      /* J = 24 */
(PID.TID 0000.0001)                 2.647274964828301E+05,      /* J = 25 */
(PID.TID 0000.0001)                 2.545652950875683E+05,      /* J = 26 */
(PID.TID 0000.0001)                 2.428369969078989E+05,      /* J = 27 */
(PID.TID 0000.0001)                 2.292584591272880E+05,      /* J = 28 */
(PID.TID 0000.0001)                 2.133486626971531E+05,      /* J = 29 */
(PID.TID 0000.0001)                 1.942331448101592E+05,      /* J = 30 */
(PID.TID 0000.0001)                 1.701080315742101E+05,      /* J = 31 */
(PID.TID 0000.0001)                 1.362652340208229E+05       /* J = 32 */
(PID.TID 0000.0001)     ;
(PID.TID 0000.0001) dyU =  /* dyU(:,1,:,1) ( units: m ) */
(PID.TID 0000.0001)                 8.015229982413632E+04,      /* I =  1 */
(PID.TID 0000.0001)                 1.362652340208229E+05,      /* I =  2 */
(PID.TID 0000.0001)                 1.701080315742101E+05,      /* I =  3 */
(PID.TID 0000.0001)      . . .
(PID.TID 0000.0001)                 2.963063101754721E+05,      /* I = 46 */
(PID.TID 0000.0001)                 2.991205495886625E+05,      /* I = 47 */
(PID.TID 0000.0001)                 3.008068453676764E+05,      /* I = 48 */
(PID.TID 0000.0001)                 3.013686170436881E+05,      /* I = 49 */
(PID.TID 0000.0001)                 3.008068453676764E+05,      /* I = 50 */
(PID.TID 0000.0001)                 2.991205495886625E+05,      /* I = 51 */
(PID.TID 0000.0001)      . . .
(PID.TID 0000.0001)                 1.942331448101592E+05,      /* I = 94 */
(PID.TID 0000.0001)                 1.701080315742101E+05,      /* I = 95 */
(PID.TID 0000.0001)                 1.362652340208229E+05,      /* I = 96 */
(PID.TID 0000.0001)                 8.015229982413632E+04,      /* I = 97 */
(PID.TID 0000.0001)                 1.362652340208229E+05,      /* I = 98 */
(PID.TID 0000.0001)                 1.701080315742101E+05,      /* I = 99 */
(PID.TID 0000.0001)      . . .
(PID.TID 0000.0001)                 2.963063101754721E+05,      /* I =142 */
(PID.TID 0000.0001)                 2.991205495886625E+05,      /* I =143 */
(PID.TID 0000.0001)                 3.008068453676764E+05,      /* I =144 */
(PID.TID 0000.0001)                 3.013686170436881E+05,      /* I =145 */
(PID.TID 0000.0001)                 3.008068453676764E+05,      /* I =146 */
(PID.TID 0000.0001)                 2.991205495886625E+05,      /* I =147 */
(PID.TID 0000.0001)      . . .
(PID.TID 0000.0001)                 1.942331448101592E+05,      /* I =190 */
(PID.TID 0000.0001)                 1.701080315742101E+05,      /* I =191 */
(PID.TID 0000.0001)                 1.362652340208229E+05       /* I =192 */
(PID.TID 0000.0001)     ;
(PID.TID 0000.0001) dyU =  /* dyU(1,:,1,:) ( units: m ) */
(PID.TID 0000.0001)                 8.015229982413632E+04,      /* J =  1 */
(PID.TID 0000.0001)                 1.333130744933864E+05,      /* J =  2 */
(PID.TID 0000.0001)                 1.691744868129062E+05,      /* J =  3 */
(PID.TID 0000.0001)                 1.937548202849060E+05,      /* J =  4 */
(PID.TID 0000.0001)                 2.130490056267208E+05,      /* J =  5 */
(PID.TID 0000.0001)                 2.290479919481738E+05,      /* J =  6 */
(PID.TID 0000.0001)                 2.426774358027003E+05,      /* J =  7 */
(PID.TID 0000.0001)                 2.544372984215561E+05,      /* J =  8 */
(PID.TID 0000.0001)                 2.646201463834826E+05,      /* J =  9 */
(PID.TID 0000.0001)                 2.734046499619031E+05,      /* J = 10 */
(PID.TID 0000.0001)                 2.809019351693761E+05,      /* J = 11 */
(PID.TID 0000.0001)                 2.871811105274442E+05,      /* J = 12 */
(PID.TID 0000.0001)                 2.922844849381675E+05,      /* J = 13 */
(PID.TID 0000.0001)                 2.962371870847826E+05,      /* J = 14 */
(PID.TID 0000.0001)                 2.990534755671296E+05,      /* J = 15 */
(PID.TID 0000.0001)                 3.007409169495504E+05,      /* J = 16 */
(PID.TID 0000.0001)                 3.013031486919771E+05,      /* J = 17 */
(PID.TID 0000.0001)                 3.007409169495504E+05,      /* J = 18 */
(PID.TID 0000.0001)                 2.990534755671296E+05,      /* J = 19 */
(PID.TID 0000.0001)                 2.962371870847826E+05,      /* J = 20 */
(PID.TID 0000.0001)                 2.922844849381675E+05,      /* J = 21 */
(PID.TID 0000.0001)                 2.871811105274442E+05,      /* J = 22 */
(PID.TID 0000.0001)                 2.809019351693761E+05,      /* J = 23 */
(PID.TID 0000.0001)                 2.734046499619031E+05,      /* J = 24 */
(PID.TID 0000.0001)                 2.646201463834826E+05,      /* J = 25 */
(PID.TID 0000.0001)                 2.544372984215561E+05,      /* J = 26 */
(PID.TID 0000.0001)                 2.426774358027003E+05,      /* J = 27 */
(PID.TID 0000.0001)                 2.290479919481738E+05,      /* J = 28 */
(PID.TID 0000.0001)                 2.130490056267208E+05,      /* J = 29 */
(PID.TID 0000.0001)                 1.937548202849060E+05,      /* J = 30 */
(PID.TID 0000.0001)                 1.691744868129062E+05,      /* J = 31 */
(PID.TID 0000.0001)                 1.333130744933864E+05       /* J = 32 */
(PID.TID 0000.0001)     ;
(PID.TID 0000.0001) rA  =  /* rA (:,1,:,1) ( units: m^2 ) */
(PID.TID 0000.0001)                 1.549786705672200E+10,      /* I =  1 */
(PID.TID 0000.0001)                 2.487202533723944E+10,      /* I =  2 */
(PID.TID 0000.0001)                 3.392265412140352E+10,      /* I =  3 */
(PID.TID 0000.0001)      . . .
(PID.TID 0000.0001)                 8.871245486529788E+10,      /* I = 46 */
(PID.TID 0000.0001)                 9.005359372079962E+10,      /* I = 47 */
(PID.TID 0000.0001)                 9.072735712796770E+10,      /* I = 48 */
(PID.TID 0000.0001)                 9.072735712796770E+10,      /* I = 49 */
(PID.TID 0000.0001)                 9.005359372079962E+10,      /* I = 50 */
(PID.TID 0000.0001)                 8.871245486529788E+10,      /* I = 51 */
(PID.TID 0000.0001)      . . .
(PID.TID 0000.0001)                 3.392265412140352E+10,      /* I = 94 */
(PID.TID 0000.0001)                 2.487202533723944E+10,      /* I = 95 */
(PID.TID 0000.0001)                 1.549786705672200E+10,      /* I = 96 */
(PID.TID 0000.0001)                 1.549786705672200E+10,      /* I = 97 */
(PID.TID 0000.0001)                 2.487202533723944E+10,      /* I = 98 */
(PID.TID 0000.0001)                 3.392265412140352E+10,      /* I = 99 */
(PID.TID 0000.0001)      . . .
(PID.TID 0000.0001)                 8.871245486529788E+10,      /* I =142 */
(PID.TID 0000.0001)                 9.005359372079962E+10,      /* I =143 */
(PID.TID 0000.0001)                 9.072735712796770E+10,      /* I =144 */
(PID.TID 0000.0001)                 9.072735712796770E+10,      /* I =145 */
(PID.TID 0000.0001)                 9.005359372079962E+10,      /* I =146 */
(PID.TID 0000.0001)                 8.871245486529788E+10,      /* I =147 */
(PID.TID 0000.0001)      . . .
(PID.TID 0000.0001)                 3.392265412140352E+10,      /* I =190 */
(PID.TID 0000.0001)                 2.487202533723944E+10,      /* I =191 */
(PID.TID 0000.0001)                 1.549786705672200E+10       /* I =192 */
(PID.TID 0000.0001)     ;
(PID.TID 0000.0001) rA  =  /* rA (1,:,1,:) ( units: m^2 ) */
(PID.TID 0000.0001)                 1.549786705672200E+10,      /* J =  1 */
(PID.TID 0000.0001)                 2.487202533723944E+10,      /* J =  2 */
(PID.TID 0000.0001)                 3.392265412140352E+10,      /* J =  3 */
(PID.TID 0000.0001)                 4.200427377313133E+10,      /* J =  4 */
(PID.TID 0000.0001)                 4.931323764668228E+10,      /* J =  5 */
(PID.TID 0000.0001)                 5.597545074899419E+10,      /* J =  6 */
(PID.TID 0000.0001)                 6.205603937791459E+10,      /* J =  7 */
(PID.TID 0000.0001)                 6.758299971934573E+10,      /* J =  8 */
(PID.TID 0000.0001)                 7.256155653843707E+10,      /* J =  9 */
(PID.TID 0000.0001)                 7.698291833687604E+10,      /* J = 10 */
(PID.TID 0000.0001)                 8.083005486272011E+10,      /* J = 11 */
(PID.TID 0000.0001)                 8.408183191745641E+10,      /* J = 12 */
(PID.TID 0000.0001)                 8.671615787312848E+10,      /* J = 13 */
(PID.TID 0000.0001)                 8.871245486529788E+10,      /* J = 14 */
(PID.TID 0000.0001)                 9.005359372079964E+10,      /* J = 15 */
(PID.TID 0000.0001)     2 @  9.072735712796770E+10,             /* J = 16: 17 */
(PID.TID 0000.0001)                 9.005359372079964E+10,      /* J = 18 */
(PID.TID 0000.0001)                 8.871245486529788E+10,      /* J = 19 */
(PID.TID 0000.0001)                 8.671615787312848E+10,      /* J = 20 */
(PID.TID 0000.0001)                 8.408183191745641E+10,      /* J = 21 */
(PID.TID 0000.0001)                 8.083005486272011E+10,      /* J = 22 */
(PID.TID 0000.0001)                 7.698291833687604E+10,      /* J = 23 */
(PID.TID 0000.0001)                 7.256155653843707E+10,      /* J = 24 */
(PID.TID 0000.0001)                 6.758299971934573E+10,      /* J = 25 */
(PID.TID 0000.0001)                 6.205603937791459E+10,      /* J = 26 */
(PID.TID 0000.0001)                 5.597545074899419E+10,      /* J = 27 */
(PID.TID 0000.0001)                 4.931323764668228E+10,      /* J = 28 */
(PID.TID 0000.0001)                 4.200427377313133E+10,      /* J = 29 */
(PID.TID 0000.0001)                 3.392265412140352E+10,      /* J = 30 */
(PID.TID 0000.0001)                 2.487202533723944E+10,      /* J = 31 */
(PID.TID 0000.0001)                 1.549786705672200E+10       /* J = 32 */
(PID.TID 0000.0001)     ;
(PID.TID 0000.0001) rAw =  /* rAw(:,1,:,1) ( units: m^2 ) */
(PID.TID 0000.0001)                 1.146542574196578E+10,      /* I =  1 */
(PID.TID 0000.0001)                 1.953030837147821E+10,      /* I =  2 */
(PID.TID 0000.0001)                 2.933967873337320E+10,      /* I =  3 */
(PID.TID 0000.0001)      . . .
(PID.TID 0000.0001)                 8.781604517750543E+10,      /* I = 46 */
(PID.TID 0000.0001)                 8.948917519517891E+10,      /* I = 47 */
(PID.TID 0000.0001)                 9.049933392602551E+10,      /* I = 48 */
(PID.TID 0000.0001)                 9.083715262395341E+10,      /* I = 49 */
(PID.TID 0000.0001)                 9.049933392602551E+10,      /* I = 50 */
(PID.TID 0000.0001)                 8.948917519517891E+10,      /* I = 51 */
(PID.TID 0000.0001)      . . .
(PID.TID 0000.0001)                 3.796176706541101E+10,      /* I = 94 */
(PID.TID 0000.0001)                 2.933967873337320E+10,      /* I = 95 */
(PID.TID 0000.0001)                 1.953030837147821E+10,      /* I = 96 */
(PID.TID 0000.0001)                 1.146542574196578E+10,      /* I = 97 */
(PID.TID 0000.0001)                 1.953030837147821E+10,      /* I = 98 */
(PID.TID 0000.0001)                 2.933967873337320E+10,      /* I = 99 */
(PID.TID 0000.0001)      . . .
(PID.TID 0000.0001)                 8.781604517750543E+10,      /* I =142 */
(PID.TID 0000.0001)                 8.948917519517891E+10,      /* I =143 */
(PID.TID 0000.0001)                 9.049933392602551E+10,      /* I =144 */
(PID.TID 0000.0001)                 9.083715262395341E+10,      /* I =145 */
(PID.TID 0000.0001)                 9.049933392602551E+10,      /* I =146 */
(PID.TID 0000.0001)                 8.948917519517891E+10,      /* I =147 */
(PID.TID 0000.0001)      . . .
(PID.TID 0000.0001)                 3.796176706541101E+10,      /* I =190 */
(PID.TID 0000.0001)                 2.933967873337320E+10,      /* I =191 */
(PID.TID 0000.0001)                 1.953030837147821E+10       /* I =192 */
(PID.TID 0000.0001)     ;
(PID.TID 0000.0001) rAw =  /* rAw(1,:,1,:) ( units: m^2 ) */
(PID.TID 0000.0001)                 1.146542574196578E+10,      /* J =  1 */
(PID.TID 0000.0001)                 2.377787005983833E+10,      /* J =  2 */
(PID.TID 0000.0001)                 3.336273018972140E+10,      /* J =  3 */
(PID.TID 0000.0001)                 4.165099566747280E+10,      /* J =  4 */
(PID.TID 0000.0001)                 4.906782896008959E+10,      /* J =  5 */
(PID.TID 0000.0001)                 5.579613053300137E+10,      /* J =  6 */
(PID.TID 0000.0001)                 6.192151981164894E+10,      /* J =  7 */
(PID.TID 0000.0001)                 6.748097638954340E+10,      /* J =  8 */
(PID.TID 0000.0001)                 7.248418794208269E+10,      /* J =  9 */
(PID.TID 0000.0001)                 7.692477203447566E+10,      /* J = 10 */
(PID.TID 0000.0001)                 8.078707194826852E+10,      /* J = 11 */
(PID.TID 0000.0001)                 8.405076334249313E+10,      /* J = 12 */
(PID.TID 0000.0001)                 8.669423991218034E+10,      /* J = 13 */
(PID.TID 0000.0001)                 8.869721460381146E+10,      /* J = 14 */
(PID.TID 0000.0001)                 9.004272888354184E+10,      /* J = 15 */
(PID.TID 0000.0001)     2 @  9.071865929421040E+10,             /* J = 16: 17 */
(PID.TID 0000.0001)                 9.004272888354184E+10,      /* J = 18 */
(PID.TID 0000.0001)                 8.869721460381146E+10,      /* J = 19 */
(PID.TID 0000.0001)                 8.669423991218034E+10,      /* J = 20 */
(PID.TID 0000.0001)                 8.405076334249313E+10,      /* J = 21 */
(PID.TID 0000.0001)                 8.078707194826852E+10,      /* J = 22 */
(PID.TID 0000.0001)                 7.692477203447566E+10,      /* J = 23 */
(PID.TID 0000.0001)                 7.248418794208269E+10,      /* J = 24 */
(PID.TID 0000.0001)                 6.748097638954340E+10,      /* J = 25 */
(PID.TID 0000.0001)                 6.192151981164894E+10,      /* J = 26 */
(PID.TID 0000.0001)                 5.579613053300137E+10,      /* J = 27 */
(PID.TID 0000.0001)                 4.906782896008959E+10,      /* J = 28 */
(PID.TID 0000.0001)                 4.165099566747280E+10,      /* J = 29 */
(PID.TID 0000.0001)                 3.336273018972140E+10,      /* J = 30 */
(PID.TID 0000.0001)                 2.377787005983833E+10,      /* J = 31 */
(PID.TID 0000.0001)                 1.146542574196578E+10       /* J = 32 */
(PID.TID 0000.0001)     ;
(PID.TID 0000.0001) rAs =  /* rAs(:,1,:,1) ( units: m^2 ) */
(PID.TID 0000.0001)                 1.146542574196578E+10,      /* I =  1 */
(PID.TID 0000.0001)                 2.377787005983833E+10,      /* I =  2 */
(PID.TID 0000.0001)                 3.336273018972140E+10,      /* I =  3 */
(PID.TID 0000.0001)      . . .
(PID.TID 0000.0001)                 8.869721460381146E+10,      /* I = 46 */
(PID.TID 0000.0001)                 9.004272888354184E+10,      /* I = 47 */
(PID.TID 0000.0001)                 9.071865929421040E+10,      /* I = 48 */
(PID.TID 0000.0001)                 9.071865929421040E+10,      /* I = 49 */
(PID.TID 0000.0001)                 9.004272888354184E+10,      /* I = 50 */
(PID.TID 0000.0001)                 8.869721460381146E+10,      /* I = 51 */
(PID.TID 0000.0001)      . . .
(PID.TID 0000.0001)                 3.336273018972140E+10,      /* I = 94 */
(PID.TID 0000.0001)                 2.377787005983833E+10,      /* I = 95 */
(PID.TID 0000.0001)                 1.146542574196578E+10,      /* I = 96 */
(PID.TID 0000.0001)                 1.146542574196578E+10,      /* I = 97 */
(PID.TID 0000.0001)                 2.377787005983833E+10,      /* I = 98 */
(PID.TID 0000.0001)                 3.336273018972140E+10,      /* I = 99 */
(PID.TID 0000.0001)      . . .
(PID.TID 0000.0001)                 8.869721460381146E+10,      /* I =142 */
(PID.TID 0000.0001)                 9.004272888354184E+10,      /* I =143 */
(PID.TID 0000.0001)                 9.071865929421040E+10,      /* I =144 */
(PID.TID 0000.0001)                 9.071865929421040E+10,      /* I =145 */
(PID.TID 0000.0001)                 9.004272888354184E+10,      /* I =146 */
(PID.TID 0000.0001)                 8.869721460381146E+10,      /* I =147 */
(PID.TID 0000.0001)      . . .
(PID.TID 0000.0001)                 3.336273018972140E+10,      /* I =190 */
(PID.TID 0000.0001)                 2.377787005983833E+10,      /* I =191 */
(PID.TID 0000.0001)                 1.146542574196578E+10       /* I =192 */
(PID.TID 0000.0001)     ;
(PID.TID 0000.0001) rAs =  /* rAs(1,:,1,:) ( units: m^2 ) */
(PID.TID 0000.0001)                 1.146542574196578E+10,      /* J =  1 */
(PID.TID 0000.0001)                 1.953030837147821E+10,      /* J =  2 */
(PID.TID 0000.0001)                 2.933967873337320E+10,      /* J =  3 */
(PID.TID 0000.0001)                 3.796176706541101E+10,      /* J =  4 */
(PID.TID 0000.0001)                 4.567569462064098E+10,      /* J =  5 */
(PID.TID 0000.0001)                 5.267377164042021E+10,      /* J =  6 */
(PID.TID 0000.0001)                 5.905615583203223E+10,      /* J =  7 */
(PID.TID 0000.0001)                 6.487043381386549E+10,      /* J =  8 */
(PID.TID 0000.0001)                 7.013339442433482E+10,      /* J =  9 */
(PID.TID 0000.0001)                 7.484316069116351E+10,      /* J = 10 */
(PID.TID 0000.0001)                 7.898662143005907E+10,      /* J = 11 */
(PID.TID 0000.0001)                 8.254445101987663E+10,      /* J = 12 */
(PID.TID 0000.0001)                 8.549478360691351E+10,      /* J = 13 */
(PID.TID 0000.0001)                 8.781604517750543E+10,      /* J = 14 */
(PID.TID 0000.0001)                 8.948917519517891E+10,      /* J = 15 */
(PID.TID 0000.0001)                 9.049933392602551E+10,      /* J = 16 */
(PID.TID 0000.0001)                 9.083715262395341E+10,      /* J = 17 */
(PID.TID 0000.0001)                 9.049933392602551E+10,      /* J = 18 */
(PID.TID 0000.0001)                 8.948917519517891E+10,      /* J = 19 */
(PID.TID 0000.0001)                 8.781604517750543E+10,      /* J = 20 */
(PID.TID 0000.0001)                 8.549478360691351E+10,      /* J = 21 */
(PID.TID 0000.0001)                 8.254445101987663E+10,      /* J = 22 */
(PID.TID 0000.0001)                 7.898662143005907E+10,      /* J = 23 */
(PID.TID 0000.0001)                 7.484316069116351E+10,      /* J = 24 */
(PID.TID 0000.0001)                 7.013339442433482E+10,      /* J = 25 */
(PID.TID 0000.0001)                 6.487043381386549E+10,      /* J = 26 */
(PID.TID 0000.0001)                 5.905615583203223E+10,      /* J = 27 */
(PID.TID 0000.0001)                 5.267377164042021E+10,      /* J = 28 */
(PID.TID 0000.0001)                 4.567569462064098E+10,      /* J = 29 */
(PID.TID 0000.0001)                 3.796176706541101E+10,      /* J = 30 */
(PID.TID 0000.0001)                 2.933967873337320E+10,      /* J = 31 */
(PID.TID 0000.0001)                 1.953030837147821E+10       /* J = 32 */
(PID.TID 0000.0001)     ;
(PID.TID 0000.0001) globalArea = /* Integrated horizontal Area (m^2) */
(PID.TID 0000.0001)                 5.098642104278459E+14
(PID.TID 0000.0001)     ;
(PID.TID 0000.0001) hasWetCSCorners = /* Domain contains CS corners (True/False) */
(PID.TID 0000.0001)                   T
(PID.TID 0000.0001)     ;
(PID.TID 0000.0001) // =======================================================
(PID.TID 0000.0001) // End of Model config. summary
(PID.TID 0000.0001) // =======================================================
(PID.TID 0000.0001) 
(PID.TID 0000.0001) == Packages configuration : Check & print summary ==
(PID.TID 0000.0001) 
(PID.TID 0000.0001) GAD_CHECK: #define ALLOW_GENERIC_ADVDIFF
(PID.TID 0000.0001) // =======================================================
(PID.TID 0000.0001) // Check Model config. (CONFIG_CHECK):
(PID.TID 0000.0001) // CONFIG_CHECK : Normal End
(PID.TID 0000.0001) // =======================================================
(PID.TID 0000.0001) 
(PID.TID 0000.0001)  MDS_READ_FIELD: opening global file: U.input.20Lev
(PID.TID 0000.0001)  MDS_READ_FIELD: opening global file: V.input.20Lev
(PID.TID 0000.0001)  MDS_READ_FIELD: opening global file: T.input.20Lev
(PID.TID 0000.0001)  MDS_READ_FIELD: opening global file: RH.input.20Lev
(PID.TID 0000.0001) // =======================================================
(PID.TID 0000.0001) // Field Initial Salinity at iteration          1
(PID.TID 0000.0001) // CMIN =          6.688321003390098E-04
(PID.TID 0000.0001) // CMAX =          3.009632860529917E-02
(PID.TID 0000.0001) // CINT =          1.089907277961487E-03
(PID.TID 0000.0001) // SYMBOLS (CMIN->CMAX): -abcdefghijklmnopqrstuvwxyz+
(PID.TID 0000.0001) //                  0.0: .
(PID.TID 0000.0001) // RANGE I (Lo:Hi:Step):(     1:   192:     1)
(PID.TID 0000.0001) // RANGE J (Lo:Hi:Step):(    32:     1:    -1)
(PID.TID 0000.0001) // RANGE K (Lo:Hi:Step):(   1:   1:   1)
(PID.TID 0000.0001) // =======================================================
(PID.TID 0000.0001) K =   1
(PID.TID 0000.0001)                I=10      I=20      I=30      I=40      I=50      I=60      I=70      I=80      I=90      I=100     I=110     I=120     I=130     I=140     I=150     I=160     I=170     I=180     I=190
(PID.TID 0000.0001) |--J--|123456789|123456789|123456789|123456789|123456789|123456789|123456789|123456789|123456789|123456789|123456789|123456789|123456789|123456789|123456789|123456789|123456789|123456789|123456789|12
(PID.TID 0000.0001)     32 eeeeeeeedddddddddcccccdddddddccdddddcccbbbbcccccbbbbbbbbbccdddeeddddddddddccccccccbbbbccccddeeeeffffghijklnqtwxyxwuspnmlkjihfffeeefffghjjkmortwxxwvtrpnmkhgffffeeedddddddcccccccccccccdddddddddd
(PID.TID 0000.0001)     31 eeeeeeeeeedddeeddcccccdddeeeddccddddcccccbddcccbbbbbbbbcbcdeeeeedddddddcccccccccccbbbcccccddedeefffggghjklnpsvwxxwurpnmlkjihgfffeeffgghijkloqtwxyxvsqpnlkjhgfffeedddddddcccccccccccccccccccddddd
(PID.TID 0000.0001)     30 fffeeeeeeeeeeefedddccdddeeeeeddccdddcccccceeecceeeddccccbcdeeeeeddddccccccbbbbcccbbbbbccccdddddeefgghhijkmnpsuwxxvtrpomlkjihggffeeffgghijkmnqtxyyxvtqnlkkkjhgffeedddddcccccccccccccccccccccccddd
(PID.TID 0000.0001)     29 fffffffffeefffeeeedccdeeeeefeedcccddcccddddgggfeeeeedccdcdeeffffdddcccbbbbbbbbcccbbbbbbccccdddddefghhiijkmoprtvwwvtrponmlkihhgffeefgghhijkmnqtxzyxvtqnlkjjjigfeeeddddccccbbbbbbbbbbbbcccccccccdd
(PID.TID 0000.0001)     28 gggggggfffggggfeedcccddddddffedccccddddddefeggfffffeeddddeffggggdddccbbbbbbbbbbbbbbbbbbcccccccddefghiijkkmoqstvwwvtrqonmlkjihggfeffghhiijkmorvyzywusqnlkjjihgfeddddcccccccbcbbbbbbbbbbcccccccccd
(PID.TID 0000.0001)     27 hhhhhhggghggfeedcccddddddddefeddccceeeddeffgfggggggfedfffgghhhhhdddcccbbbbbbbbbbbbbbbbbcccccccddefgghijklmoqsuvwvvtrqonmlkjihgfeefghhiijklmoswzzywusqnlkjihhgfdddddccccccbbbbbbbbbbbbbbccccccccd
(PID.TID 0000.0001)     26 iiihhhhiihgfedcccdddcddcccdeedeedcdffffdeffghgiiiiggfegghhiiijiiddddccbbbbbbbbbbbbbbbbbccccccccdefgghikllmoqsuwwvvtsqpnmlkjhgffeefghhijjkkmorw++ywuspnmlkihgfeddcccccccbbbbbbbbbbbbbbbbccccccccd
(PID.TID 0000.0001)     25 jjiiiiiiihfeedcccddddddccccddeeddcdefggggghhiijjjjhhgihhijkkkkjkedddccbbbbbbbbbbbbbbabbbbccccccdeffghijklmoqsuwwwvusqpnmljihgffeegghhiijklmorws+ywurqqlligigeddccccccbbbbbbbbbbbbbbbbbbbbbcccccd
(PID.TID 0000.0001)     24 jjjjjjjihgfeddcccddddeecccddeffedcdefghhiijjkllkkkiihkjjlmmmmllmddddccbbbbbbabaaabbaabbbbbccccccdeffghijklnqsuvwwvutrpnmkjhhgfffefghiiijklmorvwxwvtsoqjhgggeddccccccbbbbbbbbbbbbbbbbbbbbbbbccccd
(PID.TID 0000.0001)     23 lkkkkkjihgfedddddeffedddddefhiiffeefhiijjjklmmmmllnnmmlmnonnnnnodcccccbbbaaaaaaaaabaabbbbbbbccccdeefggijklnpruvwwvvtrpnlkjhhgfffefghhiijklnonqywwuutmkjgeggfeedcbcccbbbbbbbbaaa-aaaaaaabbbbccccd
(PID.TID 0000.0001)     22 mmmmllkjhgggfffffghgfefgggghiikkhgiijkklllnoonnnmmmnnoooppppppqqcccccbbbbaaaaaaaaabaaabbabbbccccddeffghiklnoqtvwwwvtrpnlkjhhgfeedefghhijjlmosrstwvuokkgeeeddeeddccbbbbbbbbbaaaaaaa--aaabbbbccccd
(PID.TID 0000.0001)     21 ooonnmlkjiijjjjjjkkjiijkkkklmmklmlklmnnnoopqqqppponooprrrrqqqrssdcccbbbbbaaaaaaaaaaaaabbbbbbbcccddeefghiklnoqsuwwwvtrpnmkjhhgfeddeefghhijkmoptyutsqnjggffffeeeeedccccbbbbbaaaaaaaaa---aabbbbcccc
(PID.TID 0000.0001)     20 rrrqpoonlllnoonnnoppnmmooooqqqompoppppqqqrstssssrqqqqqrsssssstttdccbbbbbba-aaaaaaaaaaabbbbbbccccddddefgiklnoqsuvwwvtrpnmkihgfeddddeeghhiikloqstwzrskihhggfffeeddddccbbbbbaaaaaaaaaaaaaaabbbbbccc
(PID.TID 0000.0001)     19 ttttsrqqppppssrqqrsutsrssrstssqtrrrrsssstuuuuutttssttttuuuuuuuuudcbbbbbbbaaaaaaaaaaaaababbbccccccdddeefhjlnoqruvwwvtromkjhgfedddddeffggijkmorsssspnkjjihhgggfeeddccbbbbbaaaaaaaaaaaaaaaaabbbbbcc
(PID.TID 0000.0001)     18 vvvuutttttttuutttstwwvvvvwxxtswutttuuuuvvvvvuuutttvwvvvvxxwvvvvvcccbbbbbbaaaaaaaaaaaaaabbbbccccccdddeefhjlmoprtvwwvtqnkjigfeddcccddeeghijlnppstsqpmlkjiihhhgfeeddccbbbbbbaaaaaaaaaaaa-aaabbbbbcc
(PID.TID 0000.0001)     17 wxxwwvvvvvvvvvvvvuvxyyxxy+uuutwvvuvvwwwwwvvuuuuuuuuxxwvy+ywvvvvvdccbbbbbbbbaaaaaaaaaaaabbbbbccccccddeefhjlmopruvvvusomkjhgfeddccccddeghiklonqstsrpnllkjiihhgfeeddcbbbbbbaaaaaaaaaaaaaa-aabbbbbcc
(PID.TID 0000.0001)     16 wxxxxwwwvvvvuuuuuuuxyyyyzvvvvuwwvvwwwxwwvvuuuuuuuvuvxwvxyxwvvuvwdccbbbbbbbbaaaaaaaaaaaaaaabbbcccccddefghjlmopruvvvtromkihgfeddcccccddegijmoorstsrqomlkjiihhgfeddcccbbbbbaaaaaaa-aaaaaaaaabbbbbcc
(PID.TID 0000.0001)     15 wxwwwwwwvvuttsrrrrstwxxxxtttttwvvvvvwwwvuuuttttttuuuuvvvvvvvuuutcccbbbbbbbbaaaaaaaaaaaaaaabbbbcccdddefgijlmoprtvvvtqomkihgfedddccccddegikmlorsttsronlkjjiihgfeddcccbbbbbaaaaaaaa--aaaa-aabbbbbbc
(PID.TID 0000.0001)     14 vwwwvuvvutsrqpooopppsvvvvqqqrxvtttuuuvuttttttsssrrsstsssstttttttbccbbbbbaabaaaaaaaaaaaaababbbbbccdddfghiklnoprtvvusqnljihgfeedddcccdeefikjlorsttsrpnmkjjjihgfedddccbbbbbaaaaaaaa-aaaaa-aabbbbbbc
(PID.TID 0000.0001)     13 tuuusssssrqponmmmmmmoooooooooussrsssttsssssssrrqqpqqqqpppqrrrrrrbccbbbbaaabaaaaaaaaaaaaaabbbbbcccddefghiklnoqrtvvuspnljihggeedddbbcceffhjkmprttttsqomlkkkihgfeddcccbbbbbaaaaaaaaaaaaaaaabbbbbbcc
(PID.TID 0000.0001)     12 rssqpppppponmmllkkjkommmmmmmsrqqqqqqrrrqqqqqqqppoooooonnnnopppppcccbbbbbbabbaaaaaaaaaaaabbbbbbcccdeffghjklnoqstvvurpmljihggfeeddbccddeghjknqstuutsqomllkkjhffeddccbbbbbbaaaaaaaaaaaaaaaabbbbbccc
(PID.TID 0000.0001)     11 pppnnnnnnnnmlllkjjihkkkkkkkkponnnppoppppooooonnnnmmmllllllllmmmmccccbbbbbbbbaaaaaaaaaabbbbbbbbccdefgghijlmnoqsuvvuromljjhhgfeeedbbcdefgjiknqsuuuutrpnmmlljhfeeddcccbbbbbbaaaaaaaaaaaaaabbbbbbccc
(PID.TID 0000.0001)     10 nnmlkklmmmmlkkkjjjiggiimliinmlklnonnnnoonnmmmllllllkkkjjjijjklkkcdccbbbbbbbaaaaaaaaaabbbabbbbccddefgghiklmnprsuvvuromlkjihgfeeeecccdehghiknqtuvvutrponnmkihfedddcccbbbbbbbaaaaaaaaaaaaabbbbbbccc
(PID.TID 0000.0001)      9 lkjiiijjkkkkkjjjjiigfgggjhhkkiijmmlllmmnmmlllkkkkkjjiiihhhghiiiiccccbbbbbbbbbaaaaaaaaaabbbbbbccddefghijklnoprsuvvuromlkjihgfeeeeccceegghiknrtvvvvusqponmkihfeeddccbbbbbbbbbbbbbbabaabbbbbbbbccdd
(PID.TID 0000.0001)      8 jhhhhgghijjkjjiiiiihfgggggkjihhhkjjjkkllllkkkkjjjihhhhhgfgggghhhdcccbbbbbbbbbbaaaaaaaaabbbbbccddeefghjjklnoqrtuvvuronmkjjhgfeeeeddddefghiknruvwwwutrponmkihfeeddcccbbbbbbbbbbbbbbbbbbbbbcccccddd
(PID.TID 0000.0001)      7 hgggggffgghiiiiiiihgggfgggghhhhhiiiiijjkkkjjjihihhggffggfffffgggdccccbbbbbbbbbbbaaaabbbbbbbbccdeeffghjklmnoqstuvvurpnmlkjhhgfffeddeefghhjloruvxxwvtsqpnmkigffeddccccbbbbbbbbbbbbbbbbbbbbcccccddd
(PID.TID 0000.0001)      6 gggffffffffghhhhhhhhffhfggihhhhhhhhhhhhijjihhhghhggffeeffeeeefffdccdcbbbbbbbbbbbbbbbbbbbbbbbccddefgghjkmnoprstvvvuspnmlkiihgffffdeefghiijlosuwxyxvusqpomkihgffeddccccccbbcccbbbbbbbccccccccccdde
(PID.TID 0000.0001)      5 fffffeeeeeeegghhhghhgfefffgfggggggghggghhhgggggggggfeeeeeeeeeeeedccdcbbbbbbbbbbbbbbbbbbbbbbbcccdefgghjkmnoprstvwvutqomlkihgfefffeeffghijkmosuwyyxwusrqomjihgffeeddcccccccccccbbbbcccccccccccddde
(PID.TID 0000.0001)      4 fffeeeeeedddeffffffgffeeeefffgfffffggfffgffffffeffffeedeeeeeeeeeddddcbbbbbbbbbbcbcbbbbbbbbbbccdeefgghikmnpqrtuvvvvxspnljihgfeeeeeefghiijlmpsvwyyywutrpnljihgfeeeedddddcccccccccbbcccccccccccddde
(PID.TID 0000.0001)      3 eeeeedddddddeeeeeeeeffeeeefffffffffffffffeeeeeeddeeeedddeeeeeeeedddcbbbbbbbbbccccccbbbbbbbbbcddeeefggiklnprstuvvvyrspnkihgfeeeeeeeeghijjlnpsuwyzyxvtrpmljihgffeeeeedddddddddccccbcccccddddcddddd
(PID.TID 0000.0001)      2 eeeeedddddccdddddddeeeeeeeeeeeeeeeeeeeeeeeeeddddcdddddddeeeeeeeedddcbbbbbbbbccccbbbbbbbbbbccdddeeeffghjlnoqstuvvvysrpmkigffeeeeeeeeghiijkmpsuwyzyxvsqomkjihgfffeeeeedddddedddccccccccdddddddddde
(PID.TID 0000.0001)      1 eeeeddeeddcccddddcdddddddddeeeeddddddddedddddcccccccccdddeeeeeeddddcbbbbbbbbccdcbbbbbbbbbbbdddeeeeefghikmoqstuvvvvtrpnjihgfeeeeeeeffghijkloruwyyywuspnmljihgfffeeeeeeddeeeeddccccccdddeeeeeeeeed
(PID.TID 0000.0001) // =======================================================
(PID.TID 0000.0001) // END OF FIELD                                          =
(PID.TID 0000.0001) // =======================================================
(PID.TID 0000.0001) 
(PID.TID 0000.0001) Start initial hydrostatic pressure computation
(PID.TID 0000.0001) Pressure is predetermined for buoyancyRelation ATMOSPHERIC
(PID.TID 0000.0001) 
(PID.TID 0000.0001)  write diagnostics summary to file ioUnit:      6
Iter.Nb:         0 ; Time(s):  0.0000000000000E+00
------------------------------------------------------------------------
2D/3D diagnostics: Number of lists:     4
------------------------------------------------------------------------
listId=    1 ; file name: SHfields
 nFlds, nActive,       freq     &     phase        , nLev               
   27  |   27  |         0.060000         0.000000 |   1
 levels:   1
 diag# | name   |   ipt  |  iMate | kLev|   count |   mate.C|           
   226 |RADSWT  |      1 |      0 |   1 |       0 |
   249 |OSR     |      2 |      0 |   1 |       0 |
   215 |OLR     |      3 |      0 |   1 |       0 |
   388 |PLALBEDO|      4 |      0 |   1 |       0 |
   279 |CLDFRC  |      5 |      0 |   1 |       0 |
   199 |PREACC  |      6 |      0 |   1 |       0 |
   200 |PRECON  |      7 |      0 |   1 |       0 |
   230 |EVAP    |      8 |      0 |   1 |       0 |
   183 |RADSWG  |      9 |      0 |   1 |       0 |
   359 |ALBNIRDF|     10 |      0 |   1 |       0 |
   357 |ALBVISDF|     11 |      0 |   1 |       0 |
   224 |LWGDOWN |     12 |      0 |   1 |       0 |
   214 |LWGUP   |     13 |      0 |   1 |       0 |
   178 |EFLUX   |     14 |      0 |   1 |       0 |
   177 |HFLUX   |     15 |      0 |   1 |       0 |
   283 |T2M     |     16 |      0 |   1 |       0 |
   284 |Q2M     |     17 |      0 |   1 |       0 |
   179 |UFLUX   |     18 |     19 |   1 |       0 |       0 |
   180 |VFLUX   |     19 |     18 |   1 |       0 |       0 |
   285 |U10M    |     20 |     21 |   1 |       0 |       0 |
   286 |V10M    |     21 |     20 |   1 |       0 |       0 |
   257 |PS      |     22 |      0 |   1 |       0 |
   250 |OSRCLR  |     23 |      0 |   1 |       0 |
   216 |OLRCLR  |     24 |      0 |   1 |       0 |
   260 |SWGCLR  |     25 |      0 |   1 |       0 |
   217 |LWGCLR  |     26 |      0 |   1 |       0 |
    93 |RSURF   |     27 |      0 |   1 |       0 |
------------------------------------------------------------------------
listId=    2 ; file name: MLfields
 nFlds, nActive,       freq     &     phase        , nLev               
    8  |    8  |        -0.060000         0.030000 |  17
 interp: 1.000E+05 9.250E+04 8.500E+04 7.000E+04 6.000E+04 5.000E+04 4.000E+04 3.000E+04 2.500E+04 2.000E+04
 interp: 1.500E+04 1.000E+04 7.000E+03 5.000E+03 3.000E+03 2.000E+03 1.000E+03
 diag# | name   |   ipt  |  iMate | kLev|   count |   mate.C|           
    29 |UVEL    |     28 |     48 |  20 |       0 |       0 |
    30 |VVEL    |     48 |     28 |  20 |       0 |       0 |
    69 |PHIHYD  |     68 |      0 |  20 |       0 |
    31 |WVEL    |     88 |      0 |  20 |       0 |
    27 |SALT    |    108 |      0 |  20 |       0 |
    28 |RELHUM  |    128 |      0 |  20 |       0 |
    92 |RCENTER |    148 |      0 |  20 |       0 |
    26 |THETA   |    168 |      0 |  20 |       0 |
------------------------------------------------------------------------
listId=    3 ; file name: MFfields
 nFlds, nActive,       freq     &     phase        , nLev               
   17  |   17  |        -0.060000         0.030000 |  17
 interp: 1.000E+05 9.250E+04 8.500E+04 7.000E+04 6.000E+04 5.000E+04 4.000E+04 3.000E+04 2.500E+04 2.000E+04
 interp: 1.500E+04 1.000E+04 7.000E+03 5.000E+03 3.000E+03 2.000E+03 1.000E+03
 diag# | name   |   ipt  |  iMate | kLev|   count |   mate.C|           
    34 |UVELSQ  |    188 |    208 |  20 |       0 |       0 |
    35 |VVELSQ  |    208 |    188 |  20 |       0 |       0 |
    32 |THETASQ |    228 |      0 |  20 |       0 |
    36 |WVELSQ  |    248 |      0 |  20 |       0 |
    70 |PHIHYDSQ|    268 |      0 |  20 |       0 |
    33 |SALTSQ  |    288 |      0 |  20 |       0 |
    39 |UV_VEL_C|    308 |    308 |  20 |       0 |       0 |
    41 |WU_VEL  |    328 |      0 |  20 |       0 |
    42 |WV_VEL  |    348 |      0 |  20 |       0 |
    55 |VVELTH  |    368 |    468 |  20 |       0 |       0 |
    56 |WVELTH  |    388 |      0 |  20 |       0 |
    58 |VVELSLT |    408 |    448 |  20 |       0 |       0 |
    59 |WVELSLT |    428 |      0 |  20 |       0 |
    57 |UVELSLT |    448 |    408 |  20 |       0 |       0 |
    54 |UVELTH  |    468 |    368 |  20 |       0 |       0 |
    60 |UVELPHI |    488 |    508 |  20 |       0 |       0 |
    61 |VVELPHI |    508 |    488 |  20 |       0 |       0 |
------------------------------------------------------------------------
listId=    4 ; file name: snapshot_ps
 nFlds, nActive,       freq     &     phase        , nLev               
    1  |    1  |        -0.060000         0.030000 |   1
 levels:   1
 diag# | name   |   ipt  |  iMate | kLev|   count |   mate.C|           
    93 |RSURF   |    528 |      0 |   1 |       0 |
------------------------------------------------------------------------
Global & Regional Statistics diagnostics: Number of lists:     1
------------------------------------------------------------------------
listId=   1 ; file name: GTfields
 nFlds, nActive,       freq     &     phase        |                    
   26  |   26  |         1.000000         0.000000 |
 Regions:   0
 diag# | name   |   ipt  |  iMate |    Volume   |   mate-Vol. |         
   226 |RADSWT  |      1 |      0 | 0.00000E+00 |
   249 |OSR     |      2 |      0 | 0.00000E+00 |
   215 |OLR     |      3 |      0 | 0.00000E+00 |
   388 |PLALBEDO|      4 |      0 | 0.00000E+00 |
   279 |CLDFRC  |      5 |      0 | 0.00000E+00 |
   199 |PREACC  |      6 |      0 | 0.00000E+00 |
   200 |PRECON  |      7 |      0 | 0.00000E+00 |
   230 |EVAP    |      8 |      0 | 0.00000E+00 |
   183 |RADSWG  |      9 |      0 | 0.00000E+00 |
   359 |ALBNIRDF|     10 |      0 | 0.00000E+00 |
   357 |ALBVISDF|     11 |      0 | 0.00000E+00 |
   224 |LWGDOWN |     12 |      0 | 0.00000E+00 |
   214 |LWGUP   |     13 |      0 | 0.00000E+00 |
   178 |EFLUX   |     14 |      0 | 0.00000E+00 |
   177 |HFLUX   |     15 |      0 | 0.00000E+00 |
   283 |T2M     |     16 |      0 | 0.00000E+00 |
   284 |Q2M     |     17 |      0 | 0.00000E+00 |
   179 |UFLUX   |     18 |      0 | 0.00000E+00 |
   180 |VFLUX   |     19 |      0 | 0.00000E+00 |
   285 |U10M    |     20 |      0 | 0.00000E+00 |
   286 |V10M    |     21 |      0 | 0.00000E+00 |
   257 |PS      |     22 |      0 | 0.00000E+00 |
   250 |OSRCLR  |     23 |      0 | 0.00000E+00 |
   216 |OLRCLR  |     24 |      0 | 0.00000E+00 |
   260 |SWGCLR  |     25 |      0 | 0.00000E+00 |
   217 |LWGCLR  |     26 |      0 | 0.00000E+00 |
------------------------------------------------------------------------
  In fizhi_init_vars: Beginning of New Experiment 
  Cold Start: Zero out Turb second moments 
  Initialize fizhi arrays that will be on pickup 
  Cold Start: Zero out Turb second moments 
  Initialize fizhi arrays that will be on pickup 
  Cold Start: Zero out Turb second moments 
  Initialize fizhi arrays that will be on pickup 
  Cold Start: Zero out Turb second moments 
  Initialize fizhi arrays that will be on pickup 
  Cold Start: Zero out Turb second moments 
  Initialize fizhi arrays that will be on pickup 
  Cold Start: Zero out Turb second moments 
  Initialize fizhi arrays that will be on pickup 
(PID.TID 0000.0001) // =======================================================
(PID.TID 0000.0001) // Model current state
(PID.TID 0000.0001) // =======================================================
(PID.TID 0000.0001) 
(PID.TID 0000.0001) // =======================================================
(PID.TID 0000.0001) // Begin MONITOR dynamic field statistics
(PID.TID 0000.0001) // =======================================================
(PID.TID 0000.0001) %MON time_tsnumber                =                     0
(PID.TID 0000.0001) %MON time_secondsf                =   0.0000000000000E+00
(PID.TID 0000.0001) %MON dynstat_eta_max              =   0.0000000000000E+00
(PID.TID 0000.0001) %MON dynstat_eta_min              =   0.0000000000000E+00
(PID.TID 0000.0001) %MON dynstat_eta_mean             =   0.0000000000000E+00
(PID.TID 0000.0001) %MON dynstat_eta_sd               =   0.0000000000000E+00
(PID.TID 0000.0001) %MON dynstat_eta_del2             =   0.0000000000000E+00
(PID.TID 0000.0001) %MON dynstat_uvel_max             =   4.1689124714060E+01
(PID.TID 0000.0001) %MON dynstat_uvel_min             =  -3.6855012364959E+01
(PID.TID 0000.0001) %MON dynstat_uvel_mean            =   1.7037315637278E+00
(PID.TID 0000.0001) %MON dynstat_uvel_sd              =   7.8762494662000E+00
(PID.TID 0000.0001) %MON dynstat_uvel_del2            =   4.6170039866525E-03
(PID.TID 0000.0001) %MON dynstat_vvel_max             =   3.8279724931338E+01
(PID.TID 0000.0001) %MON dynstat_vvel_min             =  -3.3449826571863E+01
(PID.TID 0000.0001) %MON dynstat_vvel_mean            =   1.6728858593484E+00
(PID.TID 0000.0001) %MON dynstat_vvel_sd              =   7.8521609366093E+00
(PID.TID 0000.0001) %MON dynstat_vvel_del2            =   4.7321651039721E-03
(PID.TID 0000.0001) %MON dynstat_wvel_max             =   2.0651102168184E-01
(PID.TID 0000.0001) %MON dynstat_wvel_min             =  -1.4850774831547E-01
(PID.TID 0000.0001) %MON dynstat_wvel_mean            =   1.5920826516130E-18
(PID.TID 0000.0001) %MON dynstat_wvel_sd              =   2.6334297146946E-02
(PID.TID 0000.0001) %MON dynstat_wvel_del2            =   1.0538214467621E-04
(PID.TID 0000.0001) %MON dynstat_theta_max            =   4.8585539276299E+02
(PID.TID 0000.0001) %MON dynstat_theta_min            =   2.6911078580507E+02
(PID.TID 0000.0001) %MON dynstat_theta_mean           =   3.2503096578545E+02
(PID.TID 0000.0001) %MON dynstat_theta_sd             =   4.7714841923137E+01
(PID.TID 0000.0001) %MON dynstat_theta_del2           =   1.3266932954941E-03
(PID.TID 0000.0001) %MON dynstat_salt_max             =   3.0096328605299E-02
(PID.TID 0000.0001) %MON dynstat_salt_min             =   0.0000000000000E+00
(PID.TID 0000.0001) %MON dynstat_salt_mean            =   2.6642499910156E-03
(PID.TID 0000.0001) %MON dynstat_salt_sd              =   4.4400329333276E-03
(PID.TID 0000.0001) %MON dynstat_salt_del2            =   1.2412774779216E-06
(PID.TID 0000.0001) %MON advcfl_uvel_max              =   3.1499896007934E-02
(PID.TID 0000.0001) %MON advcfl_vvel_max              =   3.5319712134133E-02
(PID.TID 0000.0001) %MON advcfl_wvel_max              =   4.9033087854809E-03
(PID.TID 0000.0001) %MON advcfl_W_hf_max              =   4.9033087854809E-03
(PID.TID 0000.0001) %MON am_eta_mean                  =   0.0000000000000E+00
(PID.TID 0000.0001) %MON am_uZo_mean                  =   2.9980022173159E+11
(PID.TID 0000.0001) %MON am_tot_mean                  =   2.9980022173159E+11
(PID.TID 0000.0001) %MON pe_b_mean                    =   0.0000000000000E+00
(PID.TID 0000.0001) %MON ke_max                       =   8.6575910092947E+02
(PID.TID 0000.0001) %MON ke_mean                      =   6.4696492683937E+01
(PID.TID 0000.0001) %MON ke_vol                       =   5.1537074390046E+19
(PID.TID 0000.0001) %MON vort_r_min                   =  -4.8334073392882E-05
(PID.TID 0000.0001) %MON vort_r_max                   =   5.4390382265555E-05
(PID.TID 0000.0001) %MON vort_a_mean                  =  -2.4009117748786E-19
(PID.TID 0000.0001) %MON vort_a_sd                    =   8.6051205768717E-05
(PID.TID 0000.0001) %MON vort_p_mean                  =  -2.4009117748786E-19
(PID.TID 0000.0001) %MON vort_p_sd                    =   8.6051205768717E-05
(PID.TID 0000.0001) %MON surfExpan_theta_mean         =   3.8975999242293E-17
(PID.TID 0000.0001) %MON surfExpan_salt_mean          =   1.5437467709100E-21
(PID.TID 0000.0001) %MON surfExpan_Heat_mean          =   3.9724034373426E-15
(PID.TID 0000.0001) %MON En_Budget_T2PE_mean          =  -2.2904633417966E-01
(PID.TID 0000.0001) // =======================================================
(PID.TID 0000.0001) // End MONITOR dynamic field statistics
(PID.TID 0000.0001) // =======================================================

 Low-Level Clouds are Grouped between levels:           30  and           19
 Mid-Level Clouds are Grouped between levels:           18  and           13


 Top Level Allowed for Convection :            5
           Highest Sub-Cloud Level:           22
           Lowest  Sub-Cloud Level:           26
     Total Number of Random Clouds:           13

 Creating Rand Numb Array in RNDCLOUD, iseed=           0
 IRAS:            1   IRAS0:            0  indx:            0
 Current Date     20040321  Current Time          200
(PID.TID 0000.0001) SOLVE_FOR_PRESSURE: putPmEinXvector =    F
 cg2d: Sum(rhs),rhsMax =   9.09494701772928E-12  3.41831225739805E+02
(PID.TID 0000.0001)      cg2d_init_res =   4.82233442687182E+03
(PID.TID 0000.0001)      cg2d_iters(min,last) =      -1       6
(PID.TID 0000.0001)      cg2d_last_res =   9.52260855019075E-11
(PID.TID 0000.0001) // =======================================================
(PID.TID 0000.0001) // Begin MONITOR dynamic field statistics
(PID.TID 0000.0001) // =======================================================
(PID.TID 0000.0001) %MON time_tsnumber                =                     1
(PID.TID 0000.0001) %MON time_secondsf                =   1.2000000000000E+02
(PID.TID 0000.0001) %MON dynstat_eta_max              =   1.1336570598596E+01
(PID.TID 0000.0001) %MON dynstat_eta_min              =  -6.8949863040053E+00
(PID.TID 0000.0001) %MON dynstat_eta_mean             =  -6.2091223412907E-17
(PID.TID 0000.0001) %MON dynstat_eta_sd               =   1.0819660981854E+00
(PID.TID 0000.0001) %MON dynstat_eta_del2             =   2.3466288936652E-02
(PID.TID 0000.0001) %MON dynstat_uvel_max             =   4.1671138061642E+01
(PID.TID 0000.0001) %MON dynstat_uvel_min             =  -3.6890781747648E+01
(PID.TID 0000.0001) %MON dynstat_uvel_mean            =   1.7031681610638E+00
(PID.TID 0000.0001) %MON dynstat_uvel_sd              =   7.8744844835233E+00
(PID.TID 0000.0001) %MON dynstat_uvel_del2            =   4.6153785589045E-03
(PID.TID 0000.0001) %MON dynstat_vvel_max             =   3.8266775500840E+01
(PID.TID 0000.0001) %MON dynstat_vvel_min             =  -3.3384639383918E+01
(PID.TID 0000.0001) %MON dynstat_vvel_mean            =   1.6734037115564E+00
(PID.TID 0000.0001) %MON dynstat_vvel_sd              =   7.8532986763227E+00
(PID.TID 0000.0001) %MON dynstat_vvel_del2            =   4.7324730396823E-03
(PID.TID 0000.0001) %MON dynstat_wvel_max             =   2.0525558619551E-01
(PID.TID 0000.0001) %MON dynstat_wvel_min             =  -1.6045546196314E-01
(PID.TID 0000.0001) %MON dynstat_wvel_mean            =   5.9703099435488E-18
(PID.TID 0000.0001) %MON dynstat_wvel_sd              =   2.6352080673311E-02
(PID.TID 0000.0001) %MON dynstat_wvel_del2            =   1.0355442214830E-04
(PID.TID 0000.0001) %MON dynstat_theta_max            =   4.8595561820746E+02
(PID.TID 0000.0001) %MON dynstat_theta_min            =   2.6911257189656E+02
(PID.TID 0000.0001) %MON dynstat_theta_mean           =   3.2504145730353E+02
(PID.TID 0000.0001) %MON dynstat_theta_sd             =   4.7752604895141E+01
(PID.TID 0000.0001) %MON dynstat_theta_del2           =   1.3264494799727E-03
(PID.TID 0000.0001) %MON dynstat_salt_max             =   2.9557606801961E-02
(PID.TID 0000.0001) %MON dynstat_salt_min             =  -1.3792903940380E-10
(PID.TID 0000.0001) %MON dynstat_salt_mean            =   2.6643102691413E-03
(PID.TID 0000.0001) %MON dynstat_salt_sd              =   4.4270063272006E-03
(PID.TID 0000.0001) %MON dynstat_salt_del2            =   1.2449311438845E-06
(PID.TID 0000.0001) %MON advcfl_uvel_max              =   3.1564870220141E-02
(PID.TID 0000.0001) %MON advcfl_vvel_max              =   3.5318870620859E-02
(PID.TID 0000.0001) %MON advcfl_wvel_max              =   4.8735002658213E-03
(PID.TID 0000.0001) %MON advcfl_W_hf_max              =   4.8735002658213E-03
(PID.TID 0000.0001) %MON am_eta_mean                  =  -7.5736421227810E+05
(PID.TID 0000.0001) %MON am_uZo_mean                  =   2.9980813942672E+11
(PID.TID 0000.0001) %MON am_tot_mean                  =   2.9980738206251E+11
(PID.TID 0000.0001) %MON pe_b_mean                    =   4.7144547234113E-06
(PID.TID 0000.0001) %MON ke_max                       =   8.6477680084984E+02
(PID.TID 0000.0001) %MON ke_mean                      =   6.4691433873744E+01
(PID.TID 0000.0001) %MON ke_vol                       =   5.1537074390046E+19
(PID.TID 0000.0001) %MON vort_r_min                   =  -4.8331721935831E-05
(PID.TID 0000.0001) %MON vort_r_max                   =   5.4416758889587E-05
(PID.TID 0000.0001) %MON vort_a_mean                  =   1.0185686317667E-19
(PID.TID 0000.0001) %MON vort_a_sd                    =   8.6051072717985E-05
(PID.TID 0000.0001) %MON vort_p_mean                  =   1.0185686317667E-19
(PID.TID 0000.0001) %MON vort_p_sd                    =   8.6051072717985E-05
(PID.TID 0000.0001) %MON surfExpan_theta_mean         =  -1.4490332218869E-03
(PID.TID 0000.0001) %MON surfExpan_salt_mean          =  -1.3364559393494E-06
(PID.TID 0000.0001) %MON surfExpan_Heat_mean          =  -8.9370328057354E-02
(PID.TID 0000.0001) %MON En_Budget_T2PE_mean          =  -2.1020189781716E-01
(PID.TID 0000.0001) // =======================================================
(PID.TID 0000.0001) // End MONITOR dynamic field statistics
(PID.TID 0000.0001) // =======================================================
 Current Date     20040321  Current Time          400
 cg2d: Sum(rhs),rhsMax =   1.09139364212751E-10  1.00764137751308E+03
(PID.TID 0000.0001)      cg2d_init_res =   9.49561591534117E+03
(PID.TID 0000.0001)      cg2d_iters(min,last) =      -1       6
(PID.TID 0000.0001)      cg2d_last_res =   1.81573029234137E-10
(PID.TID 0000.0001) // =======================================================
(PID.TID 0000.0001) // Begin MONITOR dynamic field statistics
(PID.TID 0000.0001) // =======================================================
(PID.TID 0000.0001) %MON time_tsnumber                =                     2
(PID.TID 0000.0001) %MON time_secondsf                =   2.4000000000000E+02
(PID.TID 0000.0001) %MON dynstat_eta_max              =   2.9882473409387E+01
(PID.TID 0000.0001) %MON dynstat_eta_min              =  -2.0310337598983E+01
(PID.TID 0000.0001) %MON dynstat_eta_mean             =  -4.9672978730326E-17
(PID.TID 0000.0001) %MON dynstat_eta_sd               =   3.1933408963754E+00
(PID.TID 0000.0001) %MON dynstat_eta_del2             =   6.2885853584954E-02
(PID.TID 0000.0001) %MON dynstat_uvel_max             =   4.1651609877662E+01
(PID.TID 0000.0001) %MON dynstat_uvel_min             =  -3.6924423880966E+01
(PID.TID 0000.0001) %MON dynstat_uvel_mean            =   1.7026135497097E+00
(PID.TID 0000.0001) %MON dynstat_uvel_sd              =   7.8725541531239E+00
(PID.TID 0000.0001) %MON dynstat_uvel_del2            =   4.6140687379451E-03
(PID.TID 0000.0001) %MON dynstat_vvel_max             =   3.8252026198535E+01
(PID.TID 0000.0001) %MON dynstat_vvel_min             =  -3.3316350867412E+01
(PID.TID 0000.0001) %MON dynstat_vvel_mean            =   1.6739310768019E+00
(PID.TID 0000.0001) %MON dynstat_vvel_sd              =   7.8542030889359E+00
(PID.TID 0000.0001) %MON dynstat_vvel_del2            =   4.7331276176681E-03
(PID.TID 0000.0001) %MON dynstat_wvel_max             =   2.0393385742386E-01
(PID.TID 0000.0001) %MON dynstat_wvel_min             =  -1.7237012107342E-01
(PID.TID 0000.0001) %MON dynstat_wvel_mean            =   1.5920826516130E-19
(PID.TID 0000.0001) %MON dynstat_wvel_sd              =   2.6376685348649E-02
(PID.TID 0000.0001) %MON dynstat_wvel_del2            =   1.0240186573691E-04
(PID.TID 0000.0001) %MON dynstat_theta_max            =   4.8605550067405E+02
(PID.TID 0000.0001) %MON dynstat_theta_min            =   2.6911436220757E+02
(PID.TID 0000.0001) %MON dynstat_theta_mean           =   3.2505194213254E+02
(PID.TID 0000.0001) %MON dynstat_theta_sd             =   4.7790429313293E+01
(PID.TID 0000.0001) %MON dynstat_theta_del2           =   1.3272588734833E-03
(PID.TID 0000.0001) %MON dynstat_salt_max             =   2.9371440673081E-02
(PID.TID 0000.0001) %MON dynstat_salt_min             =  -4.3542374298577E-10
(PID.TID 0000.0001) %MON dynstat_salt_mean            =   2.6643716277046E-03
(PID.TID 0000.0001) %MON dynstat_salt_sd              =   4.4155532320660E-03
(PID.TID 0000.0001) %MON dynstat_salt_del2            =   1.2985683954630E-06
(PID.TID 0000.0001) %MON advcfl_uvel_max              =   3.1610751272338E-02
(PID.TID 0000.0001) %MON advcfl_vvel_max              =   3.5314340042263E-02
(PID.TID 0000.0001) %MON advcfl_wvel_max              =   4.8421177069376E-03
(PID.TID 0000.0001) %MON advcfl_W_hf_max              =   4.8421008001588E-03
(PID.TID 0000.0001) %MON am_eta_mean                  =   1.0061922342864E+06
(PID.TID 0000.0001) %MON am_uZo_mean                  =   2.9980700716701E+11
(PID.TID 0000.0001) %MON am_tot_mean                  =   2.9980801335924E+11
(PID.TID 0000.0001) %MON pe_b_mean                    =   4.1067165562999E-05
(PID.TID 0000.0001) %MON ke_max                       =   8.6375260753421E+02
(PID.TID 0000.0001) %MON ke_mean                      =   6.4683276603756E+01
(PID.TID 0000.0001) %MON ke_vol                       =   5.1537074390047E+19
(PID.TID 0000.0001) %MON vort_r_min                   =  -4.8326894344424E-05
(PID.TID 0000.0001) %MON vort_r_max                   =   5.4442038718728E-05
(PID.TID 0000.0001) %MON vort_a_mean                  =   2.4251634089682E-21
(PID.TID 0000.0001) %MON vort_a_sd                    =   8.6050863888436E-05
(PID.TID 0000.0001) %MON vort_p_mean                  =   7.2754901980052E-21
(PID.TID 0000.0001) %MON vort_p_sd                    =   8.6050907526497E-05
(PID.TID 0000.0001) %MON surfExpan_theta_mean         =   5.5769179097874E-04
(PID.TID 0000.0001) %MON surfExpan_salt_mean          =  -2.7405342753355E-06
(PID.TID 0000.0001) %MON surfExpan_Heat_mean          =   1.6716703799617E-01
(PID.TID 0000.0001) %MON En_Budget_T2PE_mean          =  -1.9159917015574E-01
(PID.TID 0000.0001) // =======================================================
(PID.TID 0000.0001) // End MONITOR dynamic field statistics
(PID.TID 0000.0001) // =======================================================
 Current Date     20040321  Current Time          600
 cg2d: Sum(rhs),rhsMax =   3.92901711165905E-10  1.98051489643585E+03
(PID.TID 0000.0001)      cg2d_init_res =   1.41391702199370E+04
(PID.TID 0000.0001)      cg2d_iters(min,last) =      -1       6
(PID.TID 0000.0001)      cg2d_last_res =   2.63572137690256E-10
(PID.TID 0000.0001) // =======================================================
(PID.TID 0000.0001) // Begin MONITOR dynamic field statistics
(PID.TID 0000.0001) // =======================================================
(PID.TID 0000.0001) %MON time_tsnumber                =                     3
(PID.TID 0000.0001) %MON time_secondsf                =   3.6000000000000E+02
(PID.TID 0000.0001) %MON dynstat_eta_max              =   5.0189011840720E+01
(PID.TID 0000.0001) %MON dynstat_eta_min              =  -3.9910716960129E+01
(PID.TID 0000.0001) %MON dynstat_eta_mean             =  -5.4640276603358E-16
(PID.TID 0000.0001) %MON dynstat_eta_sd               =   6.3405610614781E+00
(PID.TID 0000.0001) %MON dynstat_eta_del2             =   1.1240187036871E-01
(PID.TID 0000.0001) %MON dynstat_uvel_max             =   4.1631876143248E+01
(PID.TID 0000.0001) %MON dynstat_uvel_min             =  -3.6956772518138E+01
(PID.TID 0000.0001) %MON dynstat_uvel_mean            =   1.7020737860718E+00
(PID.TID 0000.0001) %MON dynstat_uvel_sd              =   7.8705944220131E+00
(PID.TID 0000.0001) %MON dynstat_uvel_del2            =   4.6120801654520E-03
(PID.TID 0000.0001) %MON dynstat_vvel_max             =   3.8236265664876E+01
(PID.TID 0000.0001) %MON dynstat_vvel_min             =  -3.3246661488442E+01
(PID.TID 0000.0001) %MON dynstat_vvel_mean            =   1.6744726788517E+00
(PID.TID 0000.0001) %MON dynstat_vvel_sd              =   7.8550053030280E+00
(PID.TID 0000.0001) %MON dynstat_vvel_del2            =   4.7329285703054E-03
(PID.TID 0000.0001) %MON dynstat_wvel_max             =   2.0254062960418E-01
(PID.TID 0000.0001) %MON dynstat_wvel_min             =  -1.8467420657162E-01
(PID.TID 0000.0001) %MON dynstat_wvel_mean            =  -9.5524959096780E-19
(PID.TID 0000.0001) %MON dynstat_wvel_sd              =   2.6402455219504E-02
(PID.TID 0000.0001) %MON dynstat_wvel_del2            =   1.0183332989220E-04
(PID.TID 0000.0001) %MON dynstat_theta_max            =   4.8615513094250E+02
(PID.TID 0000.0001) %MON dynstat_theta_min            =   2.6911608697031E+02
(PID.TID 0000.0001) %MON dynstat_theta_mean           =   3.2506242111546E+02
(PID.TID 0000.0001) %MON dynstat_theta_sd             =   4.7828280395871E+01
(PID.TID 0000.0001) %MON dynstat_theta_del2           =   1.3262043101627E-03
(PID.TID 0000.0001) %MON dynstat_salt_max             =   2.9229587471829E-02
(PID.TID 0000.0001) %MON dynstat_salt_min             =  -7.9924343315714E-10
(PID.TID 0000.0001) %MON dynstat_salt_mean            =   2.6644323782196E-03
(PID.TID 0000.0001) %MON dynstat_salt_sd              =   4.4052914771690E-03
(PID.TID 0000.0001) %MON dynstat_salt_del2            =   1.3080986015699E-06
(PID.TID 0000.0001) %MON advcfl_uvel_max              =   3.1637587211073E-02
(PID.TID 0000.0001) %MON advcfl_vvel_max              =   3.5305231158127E-02
(PID.TID 0000.0001) %MON advcfl_wvel_max              =   4.8090375054415E-03
(PID.TID 0000.0001) %MON advcfl_W_hf_max              =   4.8089792012959E-03
(PID.TID 0000.0001) %MON am_eta_mean                  =   7.8078446378490E+06
(PID.TID 0000.0001) %MON am_uZo_mean                  =   2.9980093122128E+11
(PID.TID 0000.0001) %MON am_tot_mean                  =   2.9980873906592E+11
(PID.TID 0000.0001) %MON pe_b_mean                    =   1.6190473188809E-04
(PID.TID 0000.0001) %MON ke_max                       =   8.6273130284638E+02
(PID.TID 0000.0001) %MON ke_mean                      =   6.4674139399747E+01
(PID.TID 0000.0001) %MON ke_vol                       =   5.1537074390047E+19
(PID.TID 0000.0001) %MON vort_r_min                   =  -4.8320668257585E-05
(PID.TID 0000.0001) %MON vort_r_max                   =   5.4466820759312E-05
(PID.TID 0000.0001) %MON vort_a_mean                  =   9.7006536358730E-21
(PID.TID 0000.0001) %MON vort_a_sd                    =   8.6050573984221E-05
(PID.TID 0000.0001) %MON vort_p_mean                  =   7.2754901346364E-21
(PID.TID 0000.0001) %MON vort_p_sd                    =   8.6050735039699E-05
(PID.TID 0000.0001) %MON surfExpan_theta_mean         =   2.6224736391349E-03
(PID.TID 0000.0001) %MON surfExpan_salt_mean          =  -4.1218334028210E-06
(PID.TID 0000.0001) %MON surfExpan_Heat_mean          =   4.2773238994162E-01
(PID.TID 0000.0001) %MON En_Budget_T2PE_mean          =  -1.7340954118161E-01
(PID.TID 0000.0001) // =======================================================
(PID.TID 0000.0001) // End MONITOR dynamic field statistics
(PID.TID 0000.0001) // =======================================================
 Current Date     20040321  Current Time          800
 cg2d: Sum(rhs),rhsMax =  -6.40284270048141E-10  3.23884395849382E+03
(PID.TID 0000.0001)      cg2d_init_res =   1.86032545807442E+04
(PID.TID 0000.0001)      cg2d_iters(min,last) =      -1       6
(PID.TID 0000.0001)      cg2d_last_res =   3.38238661196557E-10
(PID.TID 0000.0001) // =======================================================
(PID.TID 0000.0001) // Begin MONITOR dynamic field statistics
(PID.TID 0000.0001) // =======================================================
(PID.TID 0000.0001) %MON time_tsnumber                =                     4
(PID.TID 0000.0001) %MON time_secondsf                =   4.8000000000000E+02
(PID.TID 0000.0001) %MON dynstat_eta_max              =   6.8392196174465E+01
(PID.TID 0000.0001) %MON dynstat_eta_min              =  -6.5267162824819E+01
(PID.TID 0000.0001) %MON dynstat_eta_mean             =   7.9476765968521E-16
(PID.TID 0000.0001) %MON dynstat_eta_sd               =   1.0483764318599E+01
(PID.TID 0000.0001) %MON dynstat_eta_del2             =   1.6784342488936E-01
(PID.TID 0000.0001) %MON dynstat_uvel_max             =   4.1612340820652E+01
(PID.TID 0000.0001) %MON dynstat_uvel_min             =  -3.6987853831856E+01
(PID.TID 0000.0001) %MON dynstat_uvel_mean            =   1.7015490557258E+00
(PID.TID 0000.0001) %MON dynstat_uvel_sd              =   7.8686272004814E+00
(PID.TID 0000.0001) %MON dynstat_uvel_del2            =   4.6100918844379E-03
(PID.TID 0000.0001) %MON dynstat_vvel_max             =   3.8219630448460E+01
(PID.TID 0000.0001) %MON dynstat_vvel_min             =  -3.3175844756429E+01
(PID.TID 0000.0001) %MON dynstat_vvel_mean            =   1.6750269554381E+00
(PID.TID 0000.0001) %MON dynstat_vvel_sd              =   7.8557359631452E+00
(PID.TID 0000.0001) %MON dynstat_vvel_del2            =   4.7326445162180E-03
(PID.TID 0000.0001) %MON dynstat_wvel_max             =   2.0107209909286E-01
(PID.TID 0000.0001) %MON dynstat_wvel_min             =  -1.9756733871610E-01
(PID.TID 0000.0001) %MON dynstat_wvel_mean            =   5.5722892806455E-18
(PID.TID 0000.0001) %MON dynstat_wvel_sd              =   2.6433987227768E-02
(PID.TID 0000.0001) %MON dynstat_wvel_del2            =   1.0188488507899E-04
(PID.TID 0000.0001) %MON dynstat_theta_max            =   4.8625451396478E+02
(PID.TID 0000.0001) %MON dynstat_theta_min            =   2.6911778561649E+02
(PID.TID 0000.0001) %MON dynstat_theta_mean           =   3.2507289866522E+02
(PID.TID 0000.0001) %MON dynstat_theta_sd             =   4.7866179585974E+01
(PID.TID 0000.0001) %MON dynstat_theta_del2           =   1.3262391259276E-03
(PID.TID 0000.0001) %MON dynstat_salt_max             =   2.9088257283419E-02
(PID.TID 0000.0001) %MON dynstat_salt_min             =  -1.2080803608383E-09
(PID.TID 0000.0001) %MON dynstat_salt_mean            =   2.6644930750398E-03
(PID.TID 0000.0001) %MON dynstat_salt_sd              =   4.3955410418489E-03
(PID.TID 0000.0001) %MON dynstat_salt_del2            =   1.3338883309216E-06
(PID.TID 0000.0001) %MON advcfl_uvel_max              =   3.1649439451656E-02
(PID.TID 0000.0001) %MON advcfl_vvel_max              =   3.5291803114840E-02
(PID.TID 0000.0001) %MON advcfl_wvel_max              =   4.7741693492567E-03
(PID.TID 0000.0001) %MON advcfl_W_hf_max              =   4.7740417972404E-03
(PID.TID 0000.0001) %MON am_eta_mean                  =   1.9638859391366E+07
(PID.TID 0000.0001) %MON am_uZo_mean                  =   2.9978981957114E+11
(PID.TID 0000.0001) %MON am_tot_mean                  =   2.9980945843053E+11
(PID.TID 0000.0001) %MON pe_b_mean                    =   4.4262777402482E-04
(PID.TID 0000.0001) %MON ke_max                       =   8.6172743225198E+02
(PID.TID 0000.0001) %MON ke_mean                      =   6.4664433024375E+01
(PID.TID 0000.0001) %MON ke_vol                       =   5.1537074390047E+19
(PID.TID 0000.0001) %MON vort_r_min                   =  -4.8313084061311E-05
(PID.TID 0000.0001) %MON vort_r_max                   =   5.4491110060609E-05
(PID.TID 0000.0001) %MON vort_a_mean                  =  -1.1640784363048E-19
(PID.TID 0000.0001) %MON vort_a_sd                    =   8.6050232257127E-05
(PID.TID 0000.0001) %MON vort_p_mean                  =  -1.1398267728129E-19
(PID.TID 0000.0001) %MON vort_p_sd                    =   8.6050583674420E-05
(PID.TID 0000.0001) %MON surfExpan_theta_mean         =   4.7555115709319E-03
(PID.TID 0000.0001) %MON surfExpan_salt_mean          =  -5.4746090000856E-06
(PID.TID 0000.0001) %MON surfExpan_Heat_mean          =   6.9317202117680E-01
(PID.TID 0000.0001) %MON En_Budget_T2PE_mean          =  -1.5553737151685E-01
(PID.TID 0000.0001) // =======================================================
(PID.TID 0000.0001) // End MONITOR dynamic field statistics
(PID.TID 0000.0001) // =======================================================
 Current Date     20040321  Current Time         1000
 cg2d: Sum(rhs),rhsMax =  -3.49245965480804E-10  4.75706669460739E+03
(PID.TID 0000.0001)      cg2d_init_res =   2.28435582644106E+04
(PID.TID 0000.0001)      cg2d_iters(min,last) =      -1       6
(PID.TID 0000.0001)      cg2d_last_res =   4.05362236033342E-10
(PID.TID 0000.0001) // =======================================================
(PID.TID 0000.0001) // Begin MONITOR dynamic field statistics
(PID.TID 0000.0001) // =======================================================
(PID.TID 0000.0001) %MON time_tsnumber                =                     5
(PID.TID 0000.0001) %MON time_secondsf                =   6.0000000000000E+02
(PID.TID 0000.0001) %MON dynstat_eta_max              =   8.2665126406620E+01
(PID.TID 0000.0001) %MON dynstat_eta_min              =  -9.5872101059000E+01
(PID.TID 0000.0001) %MON dynstat_eta_mean             =  -3.9738382984260E-16
(PID.TID 0000.0001) %MON dynstat_eta_sd               =   1.5572783953331E+01
(PID.TID 0000.0001) %MON dynstat_eta_del2             =   2.2738050550834E-01
(PID.TID 0000.0001) %MON dynstat_uvel_max             =   4.1593365733332E+01
(PID.TID 0000.0001) %MON dynstat_uvel_min             =  -3.7017674235299E+01
(PID.TID 0000.0001) %MON dynstat_uvel_mean            =   1.7010393557042E+00
(PID.TID 0000.0001) %MON dynstat_uvel_sd              =   7.8666725915001E+00
(PID.TID 0000.0001) %MON dynstat_uvel_del2            =   4.6081553182257E-03
(PID.TID 0000.0001) %MON dynstat_vvel_max             =   3.8202271069650E+01
(PID.TID 0000.0001) %MON dynstat_vvel_min             =  -3.3104179701067E+01
(PID.TID 0000.0001) %MON dynstat_vvel_mean            =   1.6755911619419E+00
(PID.TID 0000.0001) %MON dynstat_vvel_sd              =   7.8564185892857E+00
(PID.TID 0000.0001) %MON dynstat_vvel_del2            =   4.7321914956433E-03
(PID.TID 0000.0001) %MON dynstat_wvel_max             =   2.0139995760704E-01
(PID.TID 0000.0001) %MON dynstat_wvel_min             =  -2.1115914839682E-01
(PID.TID 0000.0001) %MON dynstat_wvel_mean            =   5.5722892806455E-18
(PID.TID 0000.0001) %MON dynstat_wvel_sd              =   2.6472187459401E-02
(PID.TID 0000.0001) %MON dynstat_wvel_del2            =   1.0256528194400E-04
(PID.TID 0000.0001) %MON dynstat_theta_max            =   4.8635365310357E+02
(PID.TID 0000.0001) %MON dynstat_theta_min            =   2.6911943927840E+02
(PID.TID 0000.0001) %MON dynstat_theta_mean           =   3.2508338556836E+02
(PID.TID 0000.0001) %MON dynstat_theta_sd             =   4.7904123494143E+01
(PID.TID 0000.0001) %MON dynstat_theta_del2           =   1.3256192546694E-03
(PID.TID 0000.0001) %MON dynstat_salt_max             =   2.8979614100933E-02
(PID.TID 0000.0001) %MON dynstat_salt_min             =  -1.6414695946808E-09
(PID.TID 0000.0001) %MON dynstat_salt_mean            =   2.6645514381541E-03
(PID.TID 0000.0001) %MON dynstat_salt_sd              =   4.3871473496350E-03
(PID.TID 0000.0001) %MON dynstat_salt_del2            =   1.3481440316981E-06
(PID.TID 0000.0001) %MON advcfl_uvel_max              =   3.1652101302673E-02
(PID.TID 0000.0001) %MON advcfl_vvel_max              =   3.5275041068020E-02
(PID.TID 0000.0001) %MON advcfl_wvel_max              =   5.0136719049502E-03
(PID.TID 0000.0001) %MON advcfl_W_hf_max              =   5.0147089176162E-03
(PID.TID 0000.0001) %MON am_eta_mean                  =   3.6488507629677E+07
(PID.TID 0000.0001) %MON am_uZo_mean                  =   2.9977370982533E+11
(PID.TID 0000.0001) %MON am_tot_mean                  =   2.9981019833296E+11
(PID.TID 0000.0001) %MON pe_b_mean                    =   9.7664488586719E-04
(PID.TID 0000.0001) %MON ke_max                       =   8.6075381747073E+02
(PID.TID 0000.0001) %MON ke_mean                      =   6.4654495683581E+01
(PID.TID 0000.0001) %MON ke_vol                       =   5.1537074390047E+19
(PID.TID 0000.0001) %MON vort_r_min                   =  -4.8304192007302E-05
(PID.TID 0000.0001) %MON vort_r_max                   =   5.4514914221178E-05
(PID.TID 0000.0001) %MON vort_a_mean                  =  -1.6491111180984E-19
(PID.TID 0000.0001) %MON vort_a_sd                    =   8.6049834644932E-05
(PID.TID 0000.0001) %MON vort_p_mean                  =  -1.6733626803231E-19
(PID.TID 0000.0001) %MON vort_p_sd                    =   8.6050448316648E-05
(PID.TID 0000.0001) %MON surfExpan_theta_mean         =   6.9642863784029E-03
(PID.TID 0000.0001) %MON surfExpan_salt_mean          =  -6.7942865430157E-06
(PID.TID 0000.0001) %MON surfExpan_Heat_mean          =   9.6406768412461E-01
(PID.TID 0000.0001) %MON En_Budget_T2PE_mean          =  -1.3793222555053E-01
(PID.TID 0000.0001) // =======================================================
(PID.TID 0000.0001) // End MONITOR dynamic field statistics
(PID.TID 0000.0001) // =======================================================
 Current Date     20040321  Current Time         1200
 cg2d: Sum(rhs),rhsMax =   3.49245965480804E-10  6.50666873696317E+03
(PID.TID 0000.0001)      cg2d_init_res =   2.68409803934413E+04
(PID.TID 0000.0001)      cg2d_iters(min,last) =      -1       7
(PID.TID 0000.0001)      cg2d_last_res =   2.55223700602597E-12
(PID.TID 0000.0001) // =======================================================
(PID.TID 0000.0001) // Begin MONITOR dynamic field statistics
(PID.TID 0000.0001) // =======================================================
(PID.TID 0000.0001) %MON time_tsnumber                =                     6
(PID.TID 0000.0001) %MON time_secondsf                =   7.2000000000000E+02
(PID.TID 0000.0001) %MON dynstat_eta_max              =   9.6852259687034E+01
(PID.TID 0000.0001) %MON dynstat_eta_min              =  -1.3115914551216E+02
(PID.TID 0000.0001) %MON dynstat_eta_mean             =  -1.1921514895278E-15
(PID.TID 0000.0001) %MON dynstat_eta_sd               =   2.1552931931684E+01
(PID.TID 0000.0001) %MON dynstat_eta_del2             =   2.9039909781421E-01
(PID.TID 0000.0001) %MON dynstat_uvel_max             =   4.1575260555707E+01
(PID.TID 0000.0001) %MON dynstat_uvel_min             =  -3.7046221081599E+01
(PID.TID 0000.0001) %MON dynstat_uvel_mean            =   1.7005463368004E+00
(PID.TID 0000.0001) %MON dynstat_uvel_sd              =   7.8646932021812E+00
(PID.TID 0000.0001) %MON dynstat_uvel_del2            =   4.6064390289818E-03
(PID.TID 0000.0001) %MON dynstat_vvel_max             =   3.8184351678340E+01
(PID.TID 0000.0001) %MON dynstat_vvel_min             =  -3.3031947478773E+01
(PID.TID 0000.0001) %MON dynstat_vvel_mean            =   1.6761657855895E+00
(PID.TID 0000.0001) %MON dynstat_vvel_sd              =   7.8570042515362E+00
(PID.TID 0000.0001) %MON dynstat_vvel_del2            =   4.7317416967899E-03
(PID.TID 0000.0001) %MON dynstat_wvel_max             =   2.0339699086407E-01
(PID.TID 0000.0001) %MON dynstat_wvel_min             =  -2.2545757472911E-01
(PID.TID 0000.0001) %MON dynstat_wvel_mean            =  -4.6170396896777E-18
(PID.TID 0000.0001) %MON dynstat_wvel_sd              =   2.6515385221846E-02
(PID.TID 0000.0001) %MON dynstat_wvel_del2            =   1.0390038130642E-04
(PID.TID 0000.0001) %MON dynstat_theta_max            =   4.8645255059019E+02
(PID.TID 0000.0001) %MON dynstat_theta_min            =   2.6912109375798E+02
(PID.TID 0000.0001) %MON dynstat_theta_mean           =   3.2516882121718E+02
(PID.TID 0000.0001) %MON dynstat_theta_sd             =   4.7950092835919E+01
(PID.TID 0000.0001) %MON dynstat_theta_del2           =   2.4236115150841E-03
(PID.TID 0000.0001) %MON dynstat_salt_max             =   2.8233969275562E-02
(PID.TID 0000.0001) %MON dynstat_salt_min             =  -2.0812681359210E-09
(PID.TID 0000.0001) %MON dynstat_salt_mean            =   2.6446747396523E-03
(PID.TID 0000.0001) %MON dynstat_salt_sd              =   4.3492342049946E-03
(PID.TID 0000.0001) %MON dynstat_salt_del2            =   1.7472920385549E-06
(PID.TID 0000.0001) %MON advcfl_uvel_max              =   3.1651010419962E-02
(PID.TID 0000.0001) %MON advcfl_vvel_max              =   3.5256118855125E-02
(PID.TID 0000.0001) %MON advcfl_wvel_max              =   5.3531675835958E-03
(PID.TID 0000.0001) %MON advcfl_W_hf_max              =   5.3540424890780E-03
(PID.TID 0000.0001) %MON am_eta_mean                  =   5.8344033035571E+07
(PID.TID 0000.0001) %MON am_uZo_mean                  =   2.9975260814567E+11
(PID.TID 0000.0001) %MON am_tot_mean                  =   2.9981095217870E+11
(PID.TID 0000.0001) %MON pe_b_mean                    =   1.8707548416439E-03
(PID.TID 0000.0001) %MON ke_max                       =   8.5982118822398E+02
(PID.TID 0000.0001) %MON ke_mean                      =   6.4643652293953E+01
(PID.TID 0000.0001) %MON ke_vol                       =   5.1537074390047E+19
(PID.TID 0000.0001) %MON vort_r_min                   =  -4.8294052917580E-05
(PID.TID 0000.0001) %MON vort_r_max                   =   5.4538242474713E-05
(PID.TID 0000.0001) %MON vort_a_mean                  =  -3.3952287725555E-20
(PID.TID 0000.0001) %MON vort_a_sd                    =   8.6049378900919E-05
(PID.TID 0000.0001) %MON vort_p_mean                  =  -3.3952285559889E-20
(PID.TID 0000.0001) %MON vort_p_sd                    =   8.6050325438541E-05
(PID.TID 0000.0001) %MON surfExpan_theta_mean         =   7.6649654758940E-03
(PID.TID 0000.0001) %MON surfExpan_salt_mean          =  -7.6540431816973E-06
(PID.TID 0000.0001) %MON surfExpan_Heat_mean          =   1.1328842913660E+00
(PID.TID 0000.0001) %MON En_Budget_T2PE_mean          =  -7.9482013922756E-02
(PID.TID 0000.0001) // =======================================================
(PID.TID 0000.0001) // End MONITOR dynamic field statistics
(PID.TID 0000.0001) // =======================================================
 Current Date     20040321  Current Time         1400
 cg2d: Sum(rhs),rhsMax =   6.98491930961609E-10  8.47777603594338E+03
(PID.TID 0000.0001)      cg2d_init_res =   3.12849809721664E+04
(PID.TID 0000.0001)      cg2d_iters(min,last) =      -1       7
(PID.TID 0000.0001)      cg2d_last_res =   3.81122119341687E-12
(PID.TID 0000.0001) // =======================================================
(PID.TID 0000.0001) // Begin MONITOR dynamic field statistics
(PID.TID 0000.0001) // =======================================================
(PID.TID 0000.0001) %MON time_tsnumber                =                     7
(PID.TID 0000.0001) %MON time_secondsf                =   8.4000000000000E+02
(PID.TID 0000.0001) %MON dynstat_eta_max              =   1.1422941166819E+02
(PID.TID 0000.0001) %MON dynstat_eta_min              =  -1.7052035478796E+02
(PID.TID 0000.0001) %MON dynstat_eta_mean             =  -7.9476765968521E-16
(PID.TID 0000.0001) %MON dynstat_eta_sd               =   2.8421954705510E+01
(PID.TID 0000.0001) %MON dynstat_eta_del2             =   3.6481149058504E-01
(PID.TID 0000.0001) %MON dynstat_uvel_max             =   4.1558281072997E+01
(PID.TID 0000.0001) %MON dynstat_uvel_min             =  -3.7073462751161E+01
(PID.TID 0000.0001) %MON dynstat_uvel_mean            =   1.7000969606507E+00
(PID.TID 0000.0001) %MON dynstat_uvel_sd              =   7.8627548602795E+00
(PID.TID 0000.0001) %MON dynstat_uvel_del2            =   4.6091356429517E-03
(PID.TID 0000.0001) %MON dynstat_vvel_max             =   3.8166041342768E+01
(PID.TID 0000.0001) %MON dynstat_vvel_min             =  -3.2960665586601E+01
(PID.TID 0000.0001) %MON dynstat_vvel_mean            =   1.6767200222327E+00
(PID.TID 0000.0001) %MON dynstat_vvel_sd              =   7.8576407163615E+00
(PID.TID 0000.0001) %MON dynstat_vvel_del2            =   4.7354890388175E-03
(PID.TID 0000.0001) %MON dynstat_wvel_max             =   2.2411859938416E-01
(PID.TID 0000.0001) %MON dynstat_wvel_min             =  -2.4034503779772E-01
(PID.TID 0000.0001) %MON dynstat_wvel_mean            =   9.5524959096780E-18
(PID.TID 0000.0001) %MON dynstat_wvel_sd              =   2.6976450952310E-02
(PID.TID 0000.0001) %MON dynstat_wvel_del2            =   1.1525209812211E-04
(PID.TID 0000.0001) %MON dynstat_theta_max            =   4.8655120309949E+02
(PID.TID 0000.0001) %MON dynstat_theta_min            =   2.6912277519580E+02
(PID.TID 0000.0001) %MON dynstat_theta_mean           =   3.2525433388566E+02
(PID.TID 0000.0001) %MON dynstat_theta_sd             =   4.8001615307522E+01
(PID.TID 0000.0001) %MON dynstat_theta_del2           =   4.2208861849948E-03
(PID.TID 0000.0001) %MON dynstat_salt_max             =   2.7505523771626E-02
(PID.TID 0000.0001) %MON dynstat_salt_min             =  -1.6108963009232E-03
(PID.TID 0000.0001) %MON dynstat_salt_mean            =   2.6247946264486E-03
(PID.TID 0000.0001) %MON dynstat_salt_sd              =   4.3244259890571E-03
(PID.TID 0000.0001) %MON dynstat_salt_del2            =   2.4566370610325E-06
(PID.TID 0000.0001) %MON advcfl_uvel_max              =   3.1649921709384E-02
(PID.TID 0000.0001) %MON advcfl_vvel_max              =   3.5236001561137E-02
(PID.TID 0000.0001) %MON advcfl_wvel_max              =   5.7066490968988E-03
(PID.TID 0000.0001) %MON advcfl_W_hf_max              =   5.7070718584808E-03
(PID.TID 0000.0001) %MON am_eta_mean                  =   8.5021510625045E+07
(PID.TID 0000.0001) %MON am_uZo_mean                  =   2.9972650829461E+11
(PID.TID 0000.0001) %MON am_tot_mean                  =   2.9981152980523E+11
(PID.TID 0000.0001) %MON pe_b_mean                    =   3.2532096300534E-03
(PID.TID 0000.0001) %MON ke_max                       =   8.5893813033686E+02
(PID.TID 0000.0001) %MON ke_mean                      =   6.4633575681544E+01
(PID.TID 0000.0001) %MON ke_vol                       =   5.1537074390047E+19
(PID.TID 0000.0001) %MON vort_r_min                   =  -4.8282736451884E-05
(PID.TID 0000.0001) %MON vort_r_max                   =   5.4561105144559E-05
(PID.TID 0000.0001) %MON vort_a_mean                  =   7.2754902269047E-20
(PID.TID 0000.0001) %MON vort_a_sd                    =   8.6048863788777E-05
(PID.TID 0000.0001) %MON vort_p_mean                  =   7.5180059061081E-20
(PID.TID 0000.0001) %MON vort_p_sd                    =   8.6050212338268E-05
(PID.TID 0000.0001) %MON surfExpan_theta_mean         =   5.3135327655546E-03
(PID.TID 0000.0001) %MON surfExpan_salt_mean          =  -8.0372722139202E-06
(PID.TID 0000.0001) %MON surfExpan_Heat_mean          =   1.0892903003967E+00
(PID.TID 0000.0001) %MON En_Budget_T2PE_mean          =   1.0673948220836E-01
(PID.TID 0000.0001) // =======================================================
(PID.TID 0000.0001) // End MONITOR dynamic field statistics
(PID.TID 0000.0001) // =======================================================
 Current Date     20040321  Current Time         1600
 cg2d: Sum(rhs),rhsMax =  -3.49245965480804E-09  1.06966429995792E+04
(PID.TID 0000.0001)      cg2d_init_res =   3.83038746071835E+04
(PID.TID 0000.0001)      cg2d_iters(min,last) =      -1       7
(PID.TID 0000.0001)      cg2d_last_res =   5.53786640781100E-12
(PID.TID 0000.0001) // =======================================================
(PID.TID 0000.0001) // Begin MONITOR dynamic field statistics
(PID.TID 0000.0001) // =======================================================
(PID.TID 0000.0001) %MON time_tsnumber                =                     8
(PID.TID 0000.0001) %MON time_secondsf                =   9.6000000000000E+02
(PID.TID 0000.0001) %MON dynstat_eta_max              =   1.3184418094902E+02
(PID.TID 0000.0001) %MON dynstat_eta_min              =  -2.1332690346486E+02
(PID.TID 0000.0001) %MON dynstat_eta_mean             =  -1.5895353193704E-15
(PID.TID 0000.0001) %MON dynstat_eta_sd               =   3.6343614367156E+01
(PID.TID 0000.0001) %MON dynstat_eta_del2             =   4.8474468290104E-01
(PID.TID 0000.0001) %MON dynstat_uvel_max             =   4.1542625458895E+01
(PID.TID 0000.0001) %MON dynstat_uvel_min             =  -3.7099348560119E+01
(PID.TID 0000.0001) %MON dynstat_uvel_mean            =   1.6996968734034E+00
(PID.TID 0000.0001) %MON dynstat_uvel_sd              =   7.8610209669936E+00
(PID.TID 0000.0001) %MON dynstat_uvel_del2            =   4.6390902082579E-03
(PID.TID 0000.0001) %MON dynstat_vvel_max             =   3.8147509111850E+01
(PID.TID 0000.0001) %MON dynstat_vvel_min             =  -3.2954904570673E+01
(PID.TID 0000.0001) %MON dynstat_vvel_mean            =   1.6772584586656E+00
(PID.TID 0000.0001) %MON dynstat_vvel_sd              =   7.8584610291496E+00
(PID.TID 0000.0001) %MON dynstat_vvel_del2            =   4.7640272991834E-03
(PID.TID 0000.0001) %MON dynstat_wvel_max             =   2.4475308420373E-01
(PID.TID 0000.0001) %MON dynstat_wvel_min             =  -2.5558612456294E-01
(PID.TID 0000.0001) %MON dynstat_wvel_mean            =   3.8209983638712E-18
(PID.TID 0000.0001) %MON dynstat_wvel_sd              =   2.9774180214653E-02
(PID.TID 0000.0001) %MON dynstat_wvel_del2            =   1.7134424851180E-04
(PID.TID 0000.0001) %MON dynstat_theta_max            =   4.8664960658998E+02
(PID.TID 0000.0001) %MON dynstat_theta_min            =   2.6912445735855E+02
(PID.TID 0000.0001) %MON dynstat_theta_mean           =   3.2533985408979E+02
(PID.TID 0000.0001) %MON dynstat_theta_sd             =   4.8058666458220E+01
(PID.TID 0000.0001) %MON dynstat_theta_del2           =   6.1045485199658E-03
(PID.TID 0000.0001) %MON dynstat_salt_max             =   2.6778428887529E-02
(PID.TID 0000.0001) %MON dynstat_salt_min             =  -6.2367834848056E-03
(PID.TID 0000.0001) %MON dynstat_salt_mean            =   2.6049130814854E-03
(PID.TID 0000.0001) %MON dynstat_salt_sd              =   4.3122395877556E-03
(PID.TID 0000.0001) %MON dynstat_salt_del2            =   3.2951964851137E-06
(PID.TID 0000.0001) %MON advcfl_uvel_max              =   3.1650473075086E-02
(PID.TID 0000.0001) %MON advcfl_vvel_max              =   3.5215266522651E-02
(PID.TID 0000.0001) %MON advcfl_wvel_max              =   6.0685268990012E-03
(PID.TID 0000.0001) %MON advcfl_W_hf_max              =   6.0682347878678E-03
(PID.TID 0000.0001) %MON am_eta_mean                  =   1.1622226383934E+08
(PID.TID 0000.0001) %MON am_uZo_mean                  =   2.9969589661984E+11
(PID.TID 0000.0001) %MON am_tot_mean                  =   2.9981211888368E+11
(PID.TID 0000.0001) %MON pe_b_mean                    =   5.3193723866896E-03
(PID.TID 0000.0001) %MON ke_max                       =   8.5811092274172E+02
(PID.TID 0000.0001) %MON ke_mean                      =   6.4626612911463E+01
(PID.TID 0000.0001) %MON ke_vol                       =   5.1537074390047E+19
(PID.TID 0000.0001) %MON vort_r_min                   =  -4.8270319212728E-05
(PID.TID 0000.0001) %MON vort_r_max                   =   5.4583513582127E-05
(PID.TID 0000.0001) %MON vort_a_mean                  =   4.1227777952460E-20
(PID.TID 0000.0001) %MON vort_a_sd                    =   8.6048293001322E-05
(PID.TID 0000.0001) %MON vort_p_mean                  =   4.1227773193879E-20
(PID.TID 0000.0001) %MON vort_p_sd                    =   8.6050110164061E-05
(PID.TID 0000.0001) %MON surfExpan_theta_mean         =  -3.3595307645040E-03
(PID.TID 0000.0001) %MON surfExpan_salt_mean          =  -7.0381319780748E-06
(PID.TID 0000.0001) %MON surfExpan_Heat_mean          =   6.0938464575577E-01
(PID.TID 0000.0001) %MON En_Budget_T2PE_mean          =   6.0788542118242E-01
(PID.TID 0000.0001) // =======================================================
(PID.TID 0000.0001) // End MONITOR dynamic field statistics
(PID.TID 0000.0001) // =======================================================
 Current Date     20040321  Current Time         1800
 cg2d: Sum(rhs),rhsMax =   9.31322574615479E-10  1.30970226534858E+04
(PID.TID 0000.0001)      cg2d_init_res =   4.94025446398107E+04
(PID.TID 0000.0001)      cg2d_iters(min,last) =      -1       7
(PID.TID 0000.0001)      cg2d_last_res =   7.68011619453540E-12
(PID.TID 0000.0001) // =======================================================
(PID.TID 0000.0001) // Begin MONITOR dynamic field statistics
(PID.TID 0000.0001) // =======================================================
(PID.TID 0000.0001) %MON time_tsnumber                =                     9
(PID.TID 0000.0001) %MON time_secondsf                =   1.0800000000000E+03
(PID.TID 0000.0001) %MON dynstat_eta_max              =   1.5222462451862E+02
(PID.TID 0000.0001) %MON dynstat_eta_min              =  -2.5894624693750E+02
(PID.TID 0000.0001) %MON dynstat_eta_mean             =  -1.5895353193704E-15
(PID.TID 0000.0001) %MON dynstat_eta_sd               =   4.5781217612250E+01
(PID.TID 0000.0001) %MON dynstat_eta_del2             =   7.1399025184101E-01
(PID.TID 0000.0001) %MON dynstat_uvel_max             =   4.1528437489384E+01
(PID.TID 0000.0001) %MON dynstat_uvel_min             =  -3.7123811437072E+01
(PID.TID 0000.0001) %MON dynstat_uvel_mean            =   1.6993479623201E+00
(PID.TID 0000.0001) %MON dynstat_uvel_sd              =   7.8598713769237E+00
(PID.TID 0000.0001) %MON dynstat_uvel_del2            =   4.7358404111387E-03
(PID.TID 0000.0001) %MON dynstat_vvel_max             =   3.8128913324486E+01
(PID.TID 0000.0001) %MON dynstat_vvel_min             =  -3.2945820836203E+01
(PID.TID 0000.0001) %MON dynstat_vvel_mean            =   1.6777793592552E+00
(PID.TID 0000.0001) %MON dynstat_vvel_sd              =   7.8597940080822E+00
(PID.TID 0000.0001) %MON dynstat_vvel_del2            =   4.8528765811058E-03
(PID.TID 0000.0001) %MON dynstat_wvel_max             =   3.3184144540240E-01
(PID.TID 0000.0001) %MON dynstat_wvel_min             =  -3.7197583278583E-01
(PID.TID 0000.0001) %MON dynstat_wvel_mean            =  -2.5473322425808E-18
(PID.TID 0000.0001) %MON dynstat_wvel_sd              =   3.7313979899025E-02
(PID.TID 0000.0001) %MON dynstat_wvel_del2            =   2.8331055808191E-04
(PID.TID 0000.0001) %MON dynstat_theta_max            =   4.8674777531430E+02
(PID.TID 0000.0001) %MON dynstat_theta_min            =   2.6912615021618E+02
(PID.TID 0000.0001) %MON dynstat_theta_mean           =   3.2542552200946E+02
(PID.TID 0000.0001) %MON dynstat_theta_sd             =   4.8120652728375E+01
(PID.TID 0000.0001) %MON dynstat_theta_del2           =   7.9222741145663E-03
(PID.TID 0000.0001) %MON dynstat_salt_max             =   2.6058372418578E-02
(PID.TID 0000.0001) %MON dynstat_salt_min             =  -1.1592081881662E-02
(PID.TID 0000.0001) %MON dynstat_salt_mean            =   2.5850244538032E-03
(PID.TID 0000.0001) %MON dynstat_salt_sd              =   4.3004592445098E-03
(PID.TID 0000.0001) %MON dynstat_salt_del2            =   4.0168392040139E-06
(PID.TID 0000.0001) %MON advcfl_uvel_max              =   3.1652473988038E-02
(PID.TID 0000.0001) %MON advcfl_vvel_max              =   3.5194121979561E-02
(PID.TID 0000.0001) %MON advcfl_wvel_max              =   8.8320340194498E-03
(PID.TID 0000.0001) %MON advcfl_W_hf_max              =   8.8397271934863E-03
(PID.TID 0000.0001) %MON am_eta_mean                  =   1.5164534791462E+08
(PID.TID 0000.0001) %MON am_uZo_mean                  =   2.9966102868751E+11
(PID.TID 0000.0001) %MON am_tot_mean                  =   2.9981267403542E+11
(PID.TID 0000.0001) %MON pe_b_mean                    =   8.4407073204991E-03
(PID.TID 0000.0001) %MON ke_max                       =   8.5734366348890E+02
(PID.TID 0000.0001) %MON ke_mean                      =   6.4628333507771E+01
(PID.TID 0000.0001) %MON ke_vol                       =   5.1537074390047E+19
(PID.TID 0000.0001) %MON vort_r_min                   =  -4.8256882442290E-05
(PID.TID 0000.0001) %MON vort_r_max                   =   5.4605479917631E-05
(PID.TID 0000.0001) %MON vort_a_mean                  =   7.5180065678016E-20
(PID.TID 0000.0001) %MON vort_a_sd                    =   8.6047665007019E-05
(PID.TID 0000.0001) %MON vort_p_mean                  =   7.7605217766590E-20
(PID.TID 0000.0001) %MON vort_p_sd                    =   8.6050014704796E-05
(PID.TID 0000.0001) %MON surfExpan_theta_mean         =  -2.0857349022679E-02
(PID.TID 0000.0001) %MON surfExpan_salt_mean          =  -3.9365385806439E-06
(PID.TID 0000.0001) %MON surfExpan_Heat_mean          =  -4.7821738841209E-01
(PID.TID 0000.0001) %MON En_Budget_T2PE_mean          =   1.5983031082489E+00
(PID.TID 0000.0001) // =======================================================
(PID.TID 0000.0001) // End MONITOR dynamic field statistics
(PID.TID 0000.0001) // =======================================================
 Current Date     20040321  Current Time         2000
 cg2d: Sum(rhs),rhsMax =  -6.98491930961609E-10  1.87535957232797E+04
(PID.TID 0000.0001)      cg2d_init_res =   6.42709353956905E+04
(PID.TID 0000.0001)      cg2d_iters(min,last) =      -1       7
(PID.TID 0000.0001)      cg2d_last_res =   1.01677075618149E-11
(PID.TID 0000.0001) // =======================================================
(PID.TID 0000.0001) // Begin MONITOR dynamic field statistics
(PID.TID 0000.0001) // =======================================================
(PID.TID 0000.0001) %MON time_tsnumber                =                    10
(PID.TID 0000.0001) %MON time_secondsf                =   1.2000000000000E+03
(PID.TID 0000.0001) %MON dynstat_eta_max              =   2.1132795330713E+02
(PID.TID 0000.0001) %MON dynstat_eta_min              =  -3.0676047577240E+02
(PID.TID 0000.0001) %MON dynstat_eta_mean             =  -2.3843029790556E-15
(PID.TID 0000.0001) %MON dynstat_eta_sd               =   5.7433324431698E+01
(PID.TID 0000.0001) %MON dynstat_eta_del2             =   1.1003285626810E+00
(PID.TID 0000.0001) %MON dynstat_uvel_max             =   4.1515806053799E+01
(PID.TID 0000.0001) %MON dynstat_uvel_min             =  -3.7146769038977E+01
(PID.TID 0000.0001) %MON dynstat_uvel_mean            =   1.6990551235583E+00
(PID.TID 0000.0001) %MON dynstat_uvel_sd              =   7.8597968003992E+00
(PID.TID 0000.0001) %MON dynstat_uvel_del2            =   4.9458241910767E-03
(PID.TID 0000.0001) %MON dynstat_vvel_max             =   3.8110394218932E+01
(PID.TID 0000.0001) %MON dynstat_vvel_min             =  -3.2933428107072E+01
(PID.TID 0000.0001) %MON dynstat_vvel_mean            =   1.6782856410842E+00
(PID.TID 0000.0001) %MON dynstat_vvel_sd              =   7.8620596547749E+00
(PID.TID 0000.0001) %MON dynstat_vvel_del2            =   5.0441191427790E-03
(PID.TID 0000.0001) %MON dynstat_wvel_max             =   5.5988890087840E-01
(PID.TID 0000.0001) %MON dynstat_wvel_min             =  -6.0727599829493E-01
(PID.TID 0000.0001) %MON dynstat_wvel_mean            =   3.5025818335486E-18
(PID.TID 0000.0001) %MON dynstat_wvel_sd              =   5.0486515805793E-02
(PID.TID 0000.0001) %MON dynstat_wvel_del2            =   4.4230060809466E-04
(PID.TID 0000.0001) %MON dynstat_theta_max            =   4.8684569292628E+02
(PID.TID 0000.0001) %MON dynstat_theta_min            =   2.6912784354327E+02
(PID.TID 0000.0001) %MON dynstat_theta_mean           =   3.2551119818789E+02
(PID.TID 0000.0001) %MON dynstat_theta_sd             =   4.8187889653390E+01
(PID.TID 0000.0001) %MON dynstat_theta_del2           =   9.7175513145243E-03
(PID.TID 0000.0001) %MON dynstat_salt_max             =   2.5883658489608E-02
(PID.TID 0000.0001) %MON dynstat_salt_min             =  -1.6938042400605E-02
(PID.TID 0000.0001) %MON dynstat_salt_mean            =   2.5651339993025E-03
(PID.TID 0000.0001) %MON dynstat_salt_sd              =   4.2984131004789E-03
(PID.TID 0000.0001) %MON dynstat_salt_del2            =   4.7739567964805E-06
(PID.TID 0000.0001) %MON advcfl_uvel_max              =   3.1654608099366E-02
(PID.TID 0000.0001) %MON advcfl_vvel_max              =   3.5172553444647E-02
(PID.TID 0000.0001) %MON advcfl_wvel_max              =   1.4418899840798E-02
(PID.TID 0000.0001) %MON advcfl_W_hf_max              =   1.4440935369613E-02
(PID.TID 0000.0001) %MON am_eta_mean                  =   1.9098791520289E+08
(PID.TID 0000.0001) %MON am_uZo_mean                  =   2.9962224966870E+11
(PID.TID 0000.0001) %MON am_tot_mean                  =   2.9981323758391E+11
(PID.TID 0000.0001) %MON pe_b_mean                    =   1.3284098098283E-02
(PID.TID 0000.0001) %MON ke_max                       =   8.5709710418994E+02
(PID.TID 0000.0001) %MON ke_mean                      =   6.4645909391110E+01
(PID.TID 0000.0001) %MON ke_vol                       =   5.1537074390047E+19
(PID.TID 0000.0001) %MON vort_r_min                   =  -4.8242509969883E-05
(PID.TID 0000.0001) %MON vort_r_max                   =   5.4627017027449E-05
(PID.TID 0000.0001) %MON vort_a_mean                  =  -1.4065947772016E-19
(PID.TID 0000.0001) %MON vort_a_sd                    =   8.6046987014047E-05
(PID.TID 0000.0001) %MON vort_p_mean                  =  -1.3580912655221E-19
(PID.TID 0000.0001) %MON vort_p_sd                    =   8.6049930342584E-05
(PID.TID 0000.0001) %MON surfExpan_theta_mean         =  -4.8711827650420E-02
(PID.TID 0000.0001) %MON surfExpan_salt_mean          =   1.7585319365991E-06
(PID.TID 0000.0001) %MON surfExpan_Heat_mean          =  -2.2808296287674E+00
(PID.TID 0000.0001) %MON En_Budget_T2PE_mean          =   3.2333864659315E+00
(PID.TID 0000.0001) // =======================================================
(PID.TID 0000.0001) // End MONITOR dynamic field statistics
(PID.TID 0000.0001) // =======================================================
 Current Date     20040321  Current Time         2200
 cg2d: Sum(rhs),rhsMax =   1.16415321826935E-09  2.85735346988831E+04
(PID.TID 0000.0001)      cg2d_init_res =   8.16106038962364E+04
(PID.TID 0000.0001)      cg2d_iters(min,last) =      -1       7
(PID.TID 0000.0001)      cg2d_last_res =   1.30084015928531E-11
(PID.TID 0000.0001) // =======================================================
(PID.TID 0000.0001) // Begin MONITOR dynamic field statistics
(PID.TID 0000.0001) // =======================================================
(PID.TID 0000.0001) %MON time_tsnumber                =                    11
(PID.TID 0000.0001) %MON time_secondsf                =   1.3200000000000E+03
(PID.TID 0000.0001) %MON dynstat_eta_max              =   3.3092777170250E+02
(PID.TID 0000.0001) %MON dynstat_eta_min              =  -3.8432776774409E+02
(PID.TID 0000.0001) %MON dynstat_eta_mean             =  -1.1126747235593E-14
(PID.TID 0000.0001) %MON dynstat_eta_sd               =   7.2018585401764E+01
(PID.TID 0000.0001) %MON dynstat_eta_del2             =   1.6567120897763E+00
(PID.TID 0000.0001) %MON dynstat_uvel_max             =   4.1504771295119E+01
(PID.TID 0000.0001) %MON dynstat_uvel_min             =  -3.7168127973345E+01
(PID.TID 0000.0001) %MON dynstat_uvel_mean            =   1.6988205364217E+00
(PID.TID 0000.0001) %MON dynstat_uvel_sd              =   7.8614005909780E+00
(PID.TID 0000.0001) %MON dynstat_uvel_del2            =   5.3081069890668E-03
(PID.TID 0000.0001) %MON dynstat_vvel_max             =   3.8092063292421E+01
(PID.TID 0000.0001) %MON dynstat_vvel_min             =  -3.2917771157485E+01
(PID.TID 0000.0001) %MON dynstat_vvel_mean            =   1.6787754897534E+00
(PID.TID 0000.0001) %MON dynstat_vvel_sd              =   7.8657720476199E+00
(PID.TID 0000.0001) %MON dynstat_vvel_del2            =   5.3740278677728E-03
(PID.TID 0000.0001) %MON dynstat_wvel_max             =   8.4743804921118E-01
(PID.TID 0000.0001) %MON dynstat_wvel_min             =  -8.9427626860524E-01
(PID.TID 0000.0001) %MON dynstat_wvel_mean            =  -1.5920826516130E-19
(PID.TID 0000.0001) %MON dynstat_wvel_sd              =   6.8781523645397E-02
(PID.TID 0000.0001) %MON dynstat_wvel_del2            =   6.4117069583501E-04
(PID.TID 0000.0001) %MON dynstat_theta_max            =   4.8694337934299E+02
(PID.TID 0000.0001) %MON dynstat_theta_min            =   2.6912953975480E+02
(PID.TID 0000.0001) %MON dynstat_theta_mean           =   3.2553903613549E+02
(PID.TID 0000.0001) %MON dynstat_theta_sd             =   4.8224528389861E+01
(PID.TID 0000.0001) %MON dynstat_theta_del2           =   9.5590468292882E-03
(PID.TID 0000.0001) %MON dynstat_salt_max             =   2.5859978614914E-02
(PID.TID 0000.0001) %MON dynstat_salt_min             =  -1.7042128250338E-02
(PID.TID 0000.0001) %MON dynstat_salt_mean            =   2.5600934564564E-03
(PID.TID 0000.0001) %MON dynstat_salt_sd              =   4.2239166986891E-03
(PID.TID 0000.0001) %MON dynstat_salt_del2            =   4.0064739748627E-06
(PID.TID 0000.0001) %MON advcfl_uvel_max              =   3.1655215057727E-02
(PID.TID 0000.0001) %MON advcfl_vvel_max              =   3.5150500263042E-02
(PID.TID 0000.0001) %MON advcfl_wvel_max              =   2.1233310691062E-02
(PID.TID 0000.0001) %MON advcfl_W_hf_max              =   2.1286434849533E-02
(PID.TID 0000.0001) %MON am_eta_mean                  =   2.3394507579033E+08
(PID.TID 0000.0001) %MON am_uZo_mean                  =   2.9957981509121E+11
(PID.TID 0000.0001) %MON am_tot_mean                  =   2.9981376016700E+11
(PID.TID 0000.0001) %MON pe_b_mean                    =   2.0887830590803E-02
(PID.TID 0000.0001) %MON ke_max                       =   8.5709016517808E+02
(PID.TID 0000.0001) %MON ke_mean                      =   6.4688133758122E+01
(PID.TID 0000.0001) %MON ke_vol                       =   5.1537074390046E+19
(PID.TID 0000.0001) %MON vort_r_min                   =  -4.8227285856014E-05
(PID.TID 0000.0001) %MON vort_r_max                   =   5.4648138375505E-05
(PID.TID 0000.0001) %MON vort_a_mean                  =   1.2853366067532E-19
(PID.TID 0000.0001) %MON vort_a_sd                    =   8.6046253717280E-05
(PID.TID 0000.0001) %MON vort_p_mean                  =   1.3095879583937E-19
(PID.TID 0000.0001) %MON vort_p_sd                    =   8.6049848864765E-05
(PID.TID 0000.0001) %MON surfExpan_theta_mean         =  -7.2789909810074E-02
(PID.TID 0000.0001) %MON surfExpan_salt_mean          =   6.5135100800794E-06
(PID.TID 0000.0001) %MON surfExpan_Heat_mean          =  -3.8759423539436E+00
(PID.TID 0000.0001) %MON En_Budget_T2PE_mean          =   4.8054887523289E+00
(PID.TID 0000.0001) // =======================================================
(PID.TID 0000.0001) // End MONITOR dynamic field statistics
(PID.TID 0000.0001) // =======================================================
 Current Date     20040321  Current Time         2400
 cg2d: Sum(rhs),rhsMax =   2.32830643653870E-09  4.06500817980409E+04
(PID.TID 0000.0001)      cg2d_init_res =   9.61198180000183E+04
(PID.TID 0000.0001)      cg2d_iters(min,last) =      -1       7
(PID.TID 0000.0001)      cg2d_last_res =   1.60806766424837E-11
(PID.TID 0000.0001) // =======================================================
(PID.TID 0000.0001) // Begin MONITOR dynamic field statistics
(PID.TID 0000.0001) // =======================================================
(PID.TID 0000.0001) %MON time_tsnumber                =                    12
(PID.TID 0000.0001) %MON time_secondsf                =   1.4400000000000E+03
(PID.TID 0000.0001) %MON dynstat_eta_max              =   4.7825723701890E+02
(PID.TID 0000.0001) %MON dynstat_eta_min              =  -5.4698685438826E+02
(PID.TID 0000.0001) %MON dynstat_eta_mean             =  -1.1921514895278E-14
(PID.TID 0000.0001) %MON dynstat_eta_sd               =   8.9552235103929E+01
(PID.TID 0000.0001) %MON dynstat_eta_del2             =   2.3398841325982E+00
(PID.TID 0000.0001) %MON dynstat_uvel_max             =   4.1495326663246E+01
(PID.TID 0000.0001) %MON dynstat_uvel_min             =  -3.7187785748014E+01
(PID.TID 0000.0001) %MON dynstat_uvel_mean            =   1.6986482489262E+00
(PID.TID 0000.0001) %MON dynstat_uvel_sd              =   7.8642616470617E+00
(PID.TID 0000.0001) %MON dynstat_uvel_del2            =   5.7491022490836E-03
(PID.TID 0000.0001) %MON dynstat_vvel_max             =   3.8073996470888E+01
(PID.TID 0000.0001) %MON dynstat_vvel_min             =  -3.2898923577796E+01
(PID.TID 0000.0001) %MON dynstat_vvel_mean            =   1.6792503180916E+00
(PID.TID 0000.0001) %MON dynstat_vvel_sd              =   7.8705018895564E+00
(PID.TID 0000.0001) %MON dynstat_vvel_del2            =   5.7737350758802E-03
(PID.TID 0000.0001) %MON dynstat_wvel_max             =   1.1509610634753E+00
(PID.TID 0000.0001) %MON dynstat_wvel_min             =  -1.2007616755489E+00
(PID.TID 0000.0001) %MON dynstat_wvel_mean            =   9.2340793793554E-18
(PID.TID 0000.0001) %MON dynstat_wvel_sd              =   8.8131611724795E-02
(PID.TID 0000.0001) %MON dynstat_wvel_del2            =   8.4088087174525E-04
(PID.TID 0000.0001) %MON dynstat_theta_max            =   4.8704081211323E+02
(PID.TID 0000.0001) %MON dynstat_theta_min            =   2.6913123615389E+02
(PID.TID 0000.0001) %MON dynstat_theta_mean           =   3.2556685840785E+02
(PID.TID 0000.0001) %MON dynstat_theta_sd             =   4.8263706056071E+01
(PID.TID 0000.0001) %MON dynstat_theta_del2           =   9.6675582178750E-03
(PID.TID 0000.0001) %MON dynstat_salt_max             =   2.5834511187513E-02
(PID.TID 0000.0001) %MON dynstat_salt_min             =  -2.5796955589611E-02
(PID.TID 0000.0001) %MON dynstat_salt_mean            =   2.5550569507483E-03
(PID.TID 0000.0001) %MON dynstat_salt_sd              =   4.2114577529281E-03
(PID.TID 0000.0001) %MON dynstat_salt_del2            =   4.7296356115993E-06
(PID.TID 0000.0001) %MON advcfl_uvel_max              =   3.1652914450678E-02
(PID.TID 0000.0001) %MON advcfl_vvel_max              =   3.5127995968436E-02
(PID.TID 0000.0001) %MON advcfl_wvel_max              =   2.8510368236223E-02
(PID.TID 0000.0001) %MON advcfl_W_hf_max              =   2.8619184493554E-02
(PID.TID 0000.0001) %MON am_eta_mean                  =   2.8033668337317E+08
(PID.TID 0000.0001) %MON am_uZo_mean                  =   2.9953407623920E+11
(PID.TID 0000.0001) %MON am_tot_mean                  =   2.9981441292257E+11
(PID.TID 0000.0001) %MON pe_b_mean                    =   3.2296616208413E-02
(PID.TID 0000.0001) %MON ke_max                       =   8.5708504976836E+02
(PID.TID 0000.0001) %MON ke_mean                      =   6.4748349362656E+01
(PID.TID 0000.0001) %MON ke_vol                       =   5.1537074390046E+19
(PID.TID 0000.0001) %MON vort_r_min                   =  -4.8211292405739E-05
(PID.TID 0000.0001) %MON vort_r_max                   =   5.4668857832112E-05
(PID.TID 0000.0001) %MON vort_a_mean                  =  -3.1527124316587E-20
(PID.TID 0000.0001) %MON vort_a_sd                    =   8.6045481063235E-05
(PID.TID 0000.0001) %MON vort_p_mean                  =  -2.6676790695269E-20
(PID.TID 0000.0001) %MON vort_p_sd                    =   8.6049783211206E-05
(PID.TID 0000.0001) %MON surfExpan_theta_mean         =  -9.4664850020101E-02
(PID.TID 0000.0001) %MON surfExpan_salt_mean          =   1.0940785198191E-05
(PID.TID 0000.0001) %MON surfExpan_Heat_mean          =  -5.3483184838595E+00
(PID.TID 0000.0001) %MON En_Budget_T2PE_mean          =   6.3882707767048E+00
(PID.TID 0000.0001) // =======================================================
(PID.TID 0000.0001) // End MONITOR dynamic field statistics
(PID.TID 0000.0001) // =======================================================
 Current Date     20040321  Current Time         2600
 cg2d: Sum(rhs),rhsMax =   2.56113708019257E-09  5.45968994018044E+04
(PID.TID 0000.0001)      cg2d_init_res =   1.06976245135215E+05
(PID.TID 0000.0001)      cg2d_iters(min,last) =      -1       7
(PID.TID 0000.0001)      cg2d_last_res =   1.92377786017068E-11
(PID.TID 0000.0001) // =======================================================
(PID.TID 0000.0001) // Begin MONITOR dynamic field statistics
(PID.TID 0000.0001) // =======================================================
(PID.TID 0000.0001) %MON time_tsnumber                =                    13
(PID.TID 0000.0001) %MON time_secondsf                =   1.5600000000000E+03
(PID.TID 0000.0001) %MON dynstat_eta_max              =   6.4751140575601E+02
(PID.TID 0000.0001) %MON dynstat_eta_min              =  -7.3510143637669E+02
(PID.TID 0000.0001) %MON dynstat_eta_mean             =  -1.2716282554963E-14
(PID.TID 0000.0001) %MON dynstat_eta_sd               =   1.0957043599303E+02
(PID.TID 0000.0001) %MON dynstat_eta_del2             =   3.1004517269589E+00
(PID.TID 0000.0001) %MON dynstat_uvel_max             =   4.1487426451987E+01
(PID.TID 0000.0001) %MON dynstat_uvel_min             =  -3.7205635839899E+01
(PID.TID 0000.0001) %MON dynstat_uvel_mean            =   1.6985388872604E+00
(PID.TID 0000.0001) %MON dynstat_uvel_sd              =   7.8682790856209E+00
(PID.TID 0000.0001) %MON dynstat_uvel_del2            =   6.2374424934515E-03
(PID.TID 0000.0001) %MON dynstat_vvel_max             =   3.8056226138267E+01
(PID.TID 0000.0001) %MON dynstat_vvel_min             =  -3.2876984401670E+01
(PID.TID 0000.0001) %MON dynstat_vvel_mean            =   1.6797051099757E+00
(PID.TID 0000.0001) %MON dynstat_vvel_sd              =   7.8761454773633E+00
(PID.TID 0000.0001) %MON dynstat_vvel_del2            =   6.2142867602097E-03
(PID.TID 0000.0001) %MON dynstat_wvel_max             =   1.4680964036763E+00
(PID.TID 0000.0001) %MON dynstat_wvel_min             =  -1.5243629692009E+00
(PID.TID 0000.0001) %MON dynstat_wvel_mean            =   7.9604132580650E-19
(PID.TID 0000.0001) %MON dynstat_wvel_sd              =   1.0793130356482E-01
(PID.TID 0000.0001) %MON dynstat_wvel_del2            =   1.0394028387407E-03
(PID.TID 0000.0001) %MON dynstat_theta_max            =   4.8713801687464E+02
(PID.TID 0000.0001) %MON dynstat_theta_min            =   2.6913293212188E+02
(PID.TID 0000.0001) %MON dynstat_theta_mean           =   3.2559456565875E+02
(PID.TID 0000.0001) %MON dynstat_theta_sd             =   4.8304358345279E+01
(PID.TID 0000.0001) %MON dynstat_theta_del2           =   9.8939740985856E-03
(PID.TID 0000.0001) %MON dynstat_salt_max             =   2.6275906351686E-02
(PID.TID 0000.0001) %MON dynstat_salt_min             =  -3.5841565897303E-02
(PID.TID 0000.0001) %MON dynstat_salt_mean            =   2.5500174298573E-03
(PID.TID 0000.0001) %MON dynstat_salt_sd              =   4.2351257352684E-03
(PID.TID 0000.0001) %MON dynstat_salt_del2            =   5.9711288733022E-06
(PID.TID 0000.0001) %MON advcfl_uvel_max              =   3.1646938102042E-02
(PID.TID 0000.0001) %MON advcfl_vvel_max              =   3.5105225471861E-02
(PID.TID 0000.0001) %MON advcfl_wvel_max              =   3.6193818026140E-02
(PID.TID 0000.0001) %MON advcfl_W_hf_max              =   3.6390743812516E-02
(PID.TID 0000.0001) %MON am_eta_mean                  =   3.3006450748627E+08
(PID.TID 0000.0001) %MON am_uZo_mean                  =   2.9948497101609E+11
(PID.TID 0000.0001) %MON am_tot_mean                  =   2.9981503552358E+11
(PID.TID 0000.0001) %MON pe_b_mean                    =   4.8349383715816E-02
(PID.TID 0000.0001) %MON ke_max                       =   8.5708615280709E+02
(PID.TID 0000.0001) %MON ke_mean                      =   6.4824963449585E+01
(PID.TID 0000.0001) %MON ke_vol                       =   5.1537074390047E+19
(PID.TID 0000.0001) %MON vort_r_min                   =  -4.8194604690307E-05
(PID.TID 0000.0001) %MON vort_r_max                   =   5.4689189351044E-05
(PID.TID 0000.0001) %MON vort_a_mean                  =  -1.3338398749325E-19
(PID.TID 0000.0001) %MON vort_a_sd                    =   8.6044655803205E-05
(PID.TID 0000.0001) %MON vort_p_mean                  =  -1.3580911051820E-19
(PID.TID 0000.0001) %MON vort_p_sd                    =   8.6049717731251E-05
(PID.TID 0000.0001) %MON surfExpan_theta_mean         =  -1.1379963594802E-01
(PID.TID 0000.0001) %MON surfExpan_salt_mean          =   1.4895267414903E-05
(PID.TID 0000.0001) %MON surfExpan_Heat_mean          =  -6.6608638784817E+00
(PID.TID 0000.0001) %MON En_Budget_T2PE_mean          =   7.9634819932611E+00
(PID.TID 0000.0001) // =======================================================
(PID.TID 0000.0001) // End MONITOR dynamic field statistics
(PID.TID 0000.0001) // =======================================================
 Current Date     20040321  Current Time         2800
 cg2d: Sum(rhs),rhsMax =   2.32830643653870E-09  6.99313522617072E+04
(PID.TID 0000.0001)      cg2d_init_res =   1.14066276074127E+05
(PID.TID 0000.0001)      cg2d_iters(min,last) =      -1       7
(PID.TID 0000.0001)      cg2d_last_res =   2.22950529856684E-11
(PID.TID 0000.0001) // =======================================================
(PID.TID 0000.0001) // Begin MONITOR dynamic field statistics
(PID.TID 0000.0001) // =======================================================
(PID.TID 0000.0001) %MON time_tsnumber                =                    14
(PID.TID 0000.0001) %MON time_secondsf                =   1.6800000000000E+03
(PID.TID 0000.0001) %MON dynstat_eta_max              =   8.3150785343899E+02
(PID.TID 0000.0001) %MON dynstat_eta_min              =  -9.4222084803148E+02
(PID.TID 0000.0001) %MON dynstat_eta_mean             =  -4.7686059581113E-15
(PID.TID 0000.0001) %MON dynstat_eta_sd               =   1.3136797739321E+02
(PID.TID 0000.0001) %MON dynstat_eta_del2             =   3.8910378662021E+00
(PID.TID 0000.0001) %MON dynstat_uvel_max             =   4.1480989337203E+01
(PID.TID 0000.0001) %MON dynstat_uvel_min             =  -3.7221570207138E+01
(PID.TID 0000.0001) %MON dynstat_uvel_mean            =   1.6984957342240E+00
(PID.TID 0000.0001) %MON dynstat_uvel_sd              =   7.8733790123064E+00
(PID.TID 0000.0001) %MON dynstat_uvel_del2            =   6.7516039429521E-03
(PID.TID 0000.0001) %MON dynstat_vvel_max             =   3.8038737632533E+01
(PID.TID 0000.0001) %MON dynstat_vvel_min             =  -3.2852074842536E+01
(PID.TID 0000.0001) %MON dynstat_vvel_mean            =   1.6801399320954E+00
(PID.TID 0000.0001) %MON dynstat_vvel_sd              =   7.8826325782783E+00
(PID.TID 0000.0001) %MON dynstat_vvel_del2            =   6.6760523505624E-03
(PID.TID 0000.0001) %MON dynstat_wvel_max             =   1.7958929076106E+00
(PID.TID 0000.0001) %MON dynstat_wvel_min             =  -1.8643538253531E+00
(PID.TID 0000.0001) %MON dynstat_wvel_mean            =  -6.8459554019359E-18
(PID.TID 0000.0001) %MON dynstat_wvel_sd              =   1.2788167415398E-01
(PID.TID 0000.0001) %MON dynstat_wvel_del2            =   1.2353894035690E-03
(PID.TID 0000.0001) %MON dynstat_theta_max            =   4.8723496528980E+02
(PID.TID 0000.0001) %MON dynstat_theta_min            =   2.6913462799284E+02
(PID.TID 0000.0001) %MON dynstat_theta_mean           =   3.2562226119226E+02
(PID.TID 0000.0001) %MON dynstat_theta_sd             =   4.8346099745573E+01
(PID.TID 0000.0001) %MON dynstat_theta_del2           =   1.0224645198772E-02
(PID.TID 0000.0001) %MON dynstat_salt_max             =   3.9885168278005E-02
(PID.TID 0000.0001) %MON dynstat_salt_min             =  -5.0756652896204E-02
(PID.TID 0000.0001) %MON dynstat_salt_mean            =   2.5449811842816E-03
(PID.TID 0000.0001) %MON dynstat_salt_sd              =   4.2961786359182E-03
(PID.TID 0000.0001) %MON dynstat_salt_del2            =   7.5667204953632E-06
(PID.TID 0000.0001) %MON advcfl_uvel_max              =   3.1637177192926E-02
(PID.TID 0000.0001) %MON advcfl_vvel_max              =   3.5082504437116E-02
(PID.TID 0000.0001) %MON advcfl_wvel_max              =   4.4266414531535E-02
(PID.TID 0000.0001) %MON advcfl_W_hf_max              =   4.4590699127674E-02
(PID.TID 0000.0001) %MON am_eta_mean                  =   3.8302753799374E+08
(PID.TID 0000.0001) %MON am_uZo_mean                  =   2.9943264806686E+11
(PID.TID 0000.0001) %MON am_tot_mean                  =   2.9981567560485E+11
(PID.TID 0000.0001) %MON pe_b_mean                    =   6.9499741604001E-02
(PID.TID 0000.0001) %MON ke_max                       =   8.5709752424063E+02
(PID.TID 0000.0001) %MON ke_mean                      =   6.4916875644111E+01
(PID.TID 0000.0001) %MON ke_vol                       =   5.1537074390046E+19
(PID.TID 0000.0001) %MON vort_r_min                   =  -4.8177292527678E-05
(PID.TID 0000.0001) %MON vort_r_max                   =   5.4709147640618E-05
(PID.TID 0000.0001) %MON vort_a_mean                  =   1.9643823612643E-19
(PID.TID 0000.0001) %MON vort_a_sd                    =   8.6043803534016E-05
(PID.TID 0000.0001) %MON vort_p_mean                  =   1.9643816881576E-19
(PID.TID 0000.0001) %MON vort_p_sd                    =   8.6049675560332E-05
(PID.TID 0000.0001) %MON surfExpan_theta_mean         =  -1.2999487960333E-01
(PID.TID 0000.0001) %MON surfExpan_salt_mean          =   1.8262032469490E-05
(PID.TID 0000.0001) %MON surfExpan_Heat_mean          =  -7.7934397012663E+00
(PID.TID 0000.0001) %MON En_Budget_T2PE_mean          =   9.5222933597168E+00
(PID.TID 0000.0001) // =======================================================
(PID.TID 0000.0001) // End MONITOR dynamic field statistics
(PID.TID 0000.0001) // =======================================================
 Current Date     20040321  Current Time         3000
 cg2d: Sum(rhs),rhsMax =   7.45058059692383E-09  8.61093389395827E+04
(PID.TID 0000.0001)      cg2d_init_res =   1.17729587278696E+05
(PID.TID 0000.0001)      cg2d_iters(min,last) =      -1       7
(PID.TID 0000.0001)      cg2d_last_res =   2.50793200620490E-11
(PID.TID 0000.0001) // =======================================================
(PID.TID 0000.0001) // Begin MONITOR dynamic field statistics
(PID.TID 0000.0001) // =======================================================
(PID.TID 0000.0001) %MON time_tsnumber                =                    15
(PID.TID 0000.0001) %MON time_secondsf                =   1.8000000000000E+03
(PID.TID 0000.0001) %MON dynstat_eta_max              =   1.0221506854799E+03
(PID.TID 0000.0001) %MON dynstat_eta_min              =  -1.1610479148159E+03
(PID.TID 0000.0001) %MON dynstat_eta_mean             =  -3.1790706387408E-15
(PID.TID 0000.0001) %MON dynstat_eta_sd               =   1.5418646081652E+02
(PID.TID 0000.0001) %MON dynstat_eta_del2             =   4.6689381607034E+00
(PID.TID 0000.0001) %MON dynstat_uvel_max             =   4.1475906163434E+01
(PID.TID 0000.0001) %MON dynstat_uvel_min             =  -3.7235484366756E+01
(PID.TID 0000.0001) %MON dynstat_uvel_mean            =   1.6985196010659E+00
(PID.TID 0000.0001) %MON dynstat_uvel_sd              =   7.8794787636341E+00
(PID.TID 0000.0001) %MON dynstat_uvel_del2            =   7.2782420687814E-03
(PID.TID 0000.0001) %MON dynstat_vvel_max             =   3.8021465986838E+01
(PID.TID 0000.0001) %MON dynstat_vvel_min             =  -3.2824334208861E+01
(PID.TID 0000.0001) %MON dynstat_vvel_mean            =   1.6805516643070E+00
(PID.TID 0000.0001) %MON dynstat_vvel_sd              =   7.8898877011373E+00
(PID.TID 0000.0001) %MON dynstat_vvel_del2            =   7.1471015998410E-03
(PID.TID 0000.0001) %MON dynstat_wvel_max             =   2.1318525271427E+00
(PID.TID 0000.0001) %MON dynstat_wvel_min             =  -2.2184586339775E+00
(PID.TID 0000.0001) %MON dynstat_wvel_mean            =   3.9802066290325E-18
(PID.TID 0000.0001) %MON dynstat_wvel_sd              =   1.4781579332559E-01
(PID.TID 0000.0001) %MON dynstat_wvel_del2            =   1.4280252841886E-03
(PID.TID 0000.0001) %MON dynstat_theta_max            =   4.8733208943563E+02
(PID.TID 0000.0001) %MON dynstat_theta_min            =   2.6913632199177E+02
(PID.TID 0000.0001) %MON dynstat_theta_mean           =   3.2564989921903E+02
(PID.TID 0000.0001) %MON dynstat_theta_sd             =   4.8389030102723E+01
(PID.TID 0000.0001) %MON dynstat_theta_del2           =   1.0664732189340E-02
(PID.TID 0000.0001) %MON dynstat_salt_max             =   5.3309974739576E-02
(PID.TID 0000.0001) %MON dynstat_salt_min             =  -6.5259377300862E-02
(PID.TID 0000.0001) %MON dynstat_salt_mean            =   2.5399418597560E-03
(PID.TID 0000.0001) %MON dynstat_salt_sd              =   4.3904628850587E-03
(PID.TID 0000.0001) %MON dynstat_salt_del2            =   9.2857872381879E-06
(PID.TID 0000.0001) %MON advcfl_uvel_max              =   3.1624015185031E-02
(PID.TID 0000.0001) %MON advcfl_vvel_max              =   3.5060199898830E-02
(PID.TID 0000.0001) %MON advcfl_wvel_max              =   5.2674126647665E-02
(PID.TID 0000.0001) %MON advcfl_W_hf_max              =   5.3169750384276E-02
(PID.TID 0000.0001) %MON am_eta_mean                  =   4.3912220380549E+08
(PID.TID 0000.0001) %MON am_uZo_mean                  =   2.9937717233080E+11
(PID.TID 0000.0001) %MON am_tot_mean                  =   2.9981629453461E+11
(PID.TID 0000.0001) %MON pe_b_mean                    =   9.5740709773364E-02
(PID.TID 0000.0001) %MON ke_max                       =   8.5712282357578E+02
(PID.TID 0000.0001) %MON ke_mean                      =   6.5022868055988E+01
(PID.TID 0000.0001) %MON ke_vol                       =   5.1537074390047E+19
(PID.TID 0000.0001) %MON vort_r_min                   =  -4.8159422774096E-05
(PID.TID 0000.0001) %MON vort_r_max                   =   5.4728747818324E-05
(PID.TID 0000.0001) %MON vort_a_mean                  =  -7.7605229086984E-20
(PID.TID 0000.0001) %MON vort_a_sd                    =   8.6042907531000E-05
(PID.TID 0000.0001) %MON vort_p_mean                  =  -8.2455523674444E-20
(PID.TID 0000.0001) %MON vort_p_sd                    =   8.6049637490429E-05
(PID.TID 0000.0001) %MON surfExpan_theta_mean         =  -1.4328659563775E-01
(PID.TID 0000.0001) %MON surfExpan_salt_mean          =   2.0972804998117E-05
(PID.TID 0000.0001) %MON surfExpan_Heat_mean          =  -8.7423702805846E+00
(PID.TID 0000.0001) %MON En_Budget_T2PE_mean          =   1.1055554298095E+01
(PID.TID 0000.0001) // =======================================================
(PID.TID 0000.0001) // End MONITOR dynamic field statistics
(PID.TID 0000.0001) // =======================================================
 Computing Diagnostic #    226  RADSWT       Counter:      15   Parms: SM      U1      
 Computing Diagnostic #    249  OSR          Counter:      15   Parms: SM      U1      
 Computing Diagnostic #    215  OLR          Counter:       1   Parms: SM      U1      
 Computing Diagnostic #    388  PLALBEDO     Counter:      15   Parms: SM      L1      
 Computing Diagnostic #    279  CLDFRC       Counter:       1   Parms: SM P    M1      
 Computing Diagnostic #    199  PREACC       Counter:       3   Parms: SM      L1      
 Computing Diagnostic #    200  PRECON       Counter:       3   Parms: SM      L1      
 Computing Diagnostic #    230  EVAP         Counter:       8   Parms: SM      L1      
 Computing Diagnostic #    183  RADSWG       Counter:      15   Parms: SM      L1      
 Computing Diagnostic #    359  ALBNIRDF     Counter:       1   Parms: SM      L1      
 Computing Diagnostic #    357  ALBVISDF     Counter:       1   Parms: SM      L1      
 Computing Diagnostic #    224  LWGDOWN      Counter:       8   Parms: SM      L1      
 Computing Diagnostic #    214  LWGUP        Counter:      15   Parms: SM      L1      
 Computing Diagnostic #    178  EFLUX        Counter:       8   Parms: SM      L1      
 Computing Diagnostic #    177  HFLUX        Counter:       8   Parms: SM      L1      
 Computing Diagnostic #    283  T2M          Counter:       8   Parms: SM      M1      
 Computing Diagnostic #    284  Q2M          Counter:       8   Parms: SM P    M1      
 Computing Diagnostic #    179  UFLUX        Counter:       8   Parms: UM      L1      
           Vector  Mate for  UFLUX        Diagnostic #    180  VFLUX    exists 
 Computing Diagnostic #    180  VFLUX        Counter:       8   Parms: VM      L1      
           Vector  Mate for  VFLUX        Diagnostic #    179  UFLUX    exists 
 Computing Diagnostic #    285  U10M         Counter:       8   Parms: UM      M1      
           Vector  Mate for  U10M         Diagnostic #    286  V10M     exists 
 Computing Diagnostic #    286  V10M         Counter:       8   Parms: VM      M1      
           Vector  Mate for  V10M         Diagnostic #    285  U10M     exists 
 Computing Diagnostic #    257  PS           Counter:      15   Parms: SM      L1      
 Computing Diagnostic #    250  OSRCLR       Counter:      15   Parms: SM      U1      
 Computing Diagnostic #    216  OLRCLR       Counter:       1   Parms: SM      U1      
 Computing Diagnostic #    260  SWGCLR       Counter:      15   Parms: SM      L1      
 Computing Diagnostic #    217  LWGCLR       Counter:      15   Parms: SM      L1      
 Computing Diagnostic #     93  RSURF        Counter:      15   Parms: SM      M1      
 Compute Stats, Diag. #    226  RADSWT    vol(   0 ): 7.648E+15  Parms: SM      U1      
 Compute Stats, Diag. #    249  OSR       vol(   0 ): 7.648E+15  Parms: SM      U1      
 Compute Stats, Diag. #    215  OLR       vol(   0 ): 5.099E+14  Parms: SM      U1      
 Compute Stats, Diag. #    388  PLALBEDO  vol(   0 ): 7.648E+15  Parms: SM      L1      
 Compute Stats, Diag. #    279  CLDFRC    vol(   0 ): 5.099E+14  Parms: SM P    M1      
 Compute Stats, Diag. #    199  PREACC    vol(   0 ): 1.530E+15  Parms: SM      L1      
 Compute Stats, Diag. #    200  PRECON    vol(   0 ): 1.530E+15  Parms: SM      L1      
 Compute Stats, Diag. #    230  EVAP      vol(   0 ): 4.079E+15  Parms: SM      L1      
 Compute Stats, Diag. #    183  RADSWG    vol(   0 ): 7.648E+15  Parms: SM      L1      
 Compute Stats, Diag. #    359  ALBNIRDF  vol(   0 ): 5.099E+14  Parms: SM      L1      
 Compute Stats, Diag. #    357  ALBVISDF  vol(   0 ): 5.099E+14  Parms: SM      L1      
 Compute Stats, Diag. #    224  LWGDOWN   vol(   0 ): 4.079E+15  Parms: SM      L1      
 Compute Stats, Diag. #    214  LWGUP     vol(   0 ): 7.648E+15  Parms: SM      L1      
 Compute Stats, Diag. #    178  EFLUX     vol(   0 ): 4.079E+15  Parms: SM      L1      
 Compute Stats, Diag. #    177  HFLUX     vol(   0 ): 4.079E+15  Parms: SM      L1      
 Compute Stats, Diag. #    283  T2M       vol(   0 ): 4.079E+15  Parms: SM      M1      
 Compute Stats, Diag. #    284  Q2M       vol(   0 ): 4.079E+15  Parms: SM P    M1      
 Compute Stats, Diag. #    179  UFLUX     vol(   0 ): 4.079E+15  Parms: UM      L1      
 Compute Stats, Diag. #    180  VFLUX     vol(   0 ): 4.079E+15  Parms: VM      L1      
 Compute Stats, Diag. #    285  U10M      vol(   0 ): 4.079E+15  Parms: UM      M1      
 Compute Stats, Diag. #    286  V10M      vol(   0 ): 4.079E+15  Parms: VM      M1      
 Compute Stats, Diag. #    257  PS        vol(   0 ): 7.648E+15  Parms: SM      L1      
 Compute Stats, Diag. #    250  OSRCLR    vol(   0 ): 7.648E+15  Parms: SM      U1      
 Compute Stats, Diag. #    216  OLRCLR    vol(   0 ): 5.099E+14  Parms: SM      U1      
 Compute Stats, Diag. #    260  SWGCLR    vol(   0 ): 7.648E+15  Parms: SM      L1      
 Compute Stats, Diag. #    217  LWGCLR    vol(   0 ): 7.648E+15  Parms: SM      L1      
(PID.TID 0000.0001) Did not write pickup because writePickupAtEnd = FALSE
(PID.TID 0000.0001)   Seconds in section "ALL                    [THE_MODEL_MAIN]":
(PID.TID 0000.0001)           User time:   96.750000000000000
(PID.TID 0000.0001)         System time:   1.5700000000000001
(PID.TID 0000.0001)     Wall clock time:   127.90297317504883
(PID.TID 0000.0001)          No. starts:           1
(PID.TID 0000.0001)           No. stops:           1
(PID.TID 0000.0001)   Seconds in section "INITIALISE_FIXED       [THE_MODEL_MAIN]":
(PID.TID 0000.0001)           User time:  0.71999999999999997
(PID.TID 0000.0001)         System time:  0.10000000000000001
(PID.TID 0000.0001)     Wall clock time:   12.126397132873535
(PID.TID 0000.0001)          No. starts:           1
(PID.TID 0000.0001)           No. stops:           1
(PID.TID 0000.0001)   Seconds in section "THE_MAIN_LOOP          [THE_MODEL_MAIN]":
(PID.TID 0000.0001)           User time:   96.020000000000010
(PID.TID 0000.0001)         System time:   1.4700000000000000
(PID.TID 0000.0001)     Wall clock time:   115.75409603118896
(PID.TID 0000.0001)          No. starts:           1
(PID.TID 0000.0001)           No. stops:           1
(PID.TID 0000.0001)   Seconds in section "INITIALISE_VARIA    [THE_MAIN_LOOP]":
(PID.TID 0000.0001)           User time:   1.1500000000000001
(PID.TID 0000.0001)         System time:  0.16000000000000000
(PID.TID 0000.0001)     Wall clock time:   4.1083788871765137
(PID.TID 0000.0001)          No. starts:           1
(PID.TID 0000.0001)           No. stops:           1
(PID.TID 0000.0001)   Seconds in section "GRIDALT_UPDATE  [INITIALISE_VARIA]":
(PID.TID 0000.0001)           User time:  1.00000000000000089E-002
(PID.TID 0000.0001)         System time:   0.0000000000000000
(PID.TID 0000.0001)     Wall clock time:  8.29601287841796875E-003
(PID.TID 0000.0001)          No. starts:           1
(PID.TID 0000.0001)           No. stops:           1
(PID.TID 0000.0001)   Seconds in section "MAIN LOOP           [THE_MAIN_LOOP]":
(PID.TID 0000.0001)           User time:   94.870000000000005
(PID.TID 0000.0001)         System time:   1.3100000000000001
(PID.TID 0000.0001)     Wall clock time:   111.64567494392395
(PID.TID 0000.0001)          No. starts:           1
(PID.TID 0000.0001)           No. stops:           1
(PID.TID 0000.0001)   Seconds in section "FORWARD_STEP        [THE_MAIN_LOOP]":
(PID.TID 0000.0001)           User time:   94.870000000000047
(PID.TID 0000.0001)         System time:   1.3100000000000001
(PID.TID 0000.0001)     Wall clock time:   111.64551830291748
(PID.TID 0000.0001)          No. starts:          15
(PID.TID 0000.0001)           No. stops:          15
(PID.TID 0000.0001)   Seconds in section "DO_STATEVARS_DIAGS  [FORWARD_STEP]":
(PID.TID 0000.0001)           User time:  9.99999999999090505E-003
(PID.TID 0000.0001)         System time:   0.0000000000000000
(PID.TID 0000.0001)     Wall clock time:  1.97227001190185547E-002
(PID.TID 0000.0001)          No. starts:          45
(PID.TID 0000.0001)           No. stops:          45
(PID.TID 0000.0001)   Seconds in section "LOAD_FIELDS_DRIVER  [FORWARD_STEP]":
(PID.TID 0000.0001)           User time:   0.0000000000000000
(PID.TID 0000.0001)         System time:   0.0000000000000000
(PID.TID 0000.0001)     Wall clock time:  4.30345535278320313E-004
(PID.TID 0000.0001)          No. starts:          15
(PID.TID 0000.0001)           No. stops:          15
(PID.TID 0000.0001)   Seconds in section "EXTERNAL_FLDS_LOAD [LOAD_FLDS_DRIVER]":
(PID.TID 0000.0001)           User time:   0.0000000000000000
(PID.TID 0000.0001)         System time:   0.0000000000000000
(PID.TID 0000.0001)     Wall clock time:  1.48773193359375000E-004
(PID.TID 0000.0001)          No. starts:          15
(PID.TID 0000.0001)           No. stops:          15
(PID.TID 0000.0001)   Seconds in section "DO_ATMOSPHERIC_PHYS [FORWARD_STEP]":
(PID.TID 0000.0001)           User time:   58.589999999999961
(PID.TID 0000.0001)         System time:   1.2000000000000006
(PID.TID 0000.0001)     Wall clock time:   59.920047760009766
(PID.TID 0000.0001)          No. starts:          15
(PID.TID 0000.0001)           No. stops:          15
(PID.TID 0000.0001)   Seconds in section "FIZHI          [DO_ATMOSPHERIC_PHYS]":
(PID.TID 0000.0001)           User time:   58.589999999999961
(PID.TID 0000.0001)         System time:   1.2000000000000006
(PID.TID 0000.0001)     Wall clock time:   59.919739246368408
(PID.TID 0000.0001)          No. starts:          15
(PID.TID 0000.0001)           No. stops:          15
(PID.TID 0000.0001)   Seconds in section "DO_FIZHI          [FIZHI_WRAPPER]":
(PID.TID 0000.0001)           User time:   55.230000000000032
(PID.TID 0000.0001)         System time:   1.1900000000000008
(PID.TID 0000.0001)     Wall clock time:   56.553787708282471
(PID.TID 0000.0001)          No. starts:          15
(PID.TID 0000.0001)           No. stops:          15
(PID.TID 0000.0001)   Seconds in section "PHYS2DYN          [FIZHI_WRAPPER]":
(PID.TID 0000.0001)           User time:   1.4599999999999653
(PID.TID 0000.0001)         System time:  1.00000000000000089E-002
(PID.TID 0000.0001)     Wall clock time:   1.4682691097259521
(PID.TID 0000.0001)          No. starts:          15
(PID.TID 0000.0001)           No. stops:          15
(PID.TID 0000.0001)   Seconds in section "ATOC              [FIZHI_WRAPPER]":
(PID.TID 0000.0001)           User time:  0.55000000000002558
(PID.TID 0000.0001)         System time:   0.0000000000000000
(PID.TID 0000.0001)     Wall clock time:  0.54856419563293457
(PID.TID 0000.0001)          No. starts:          15
(PID.TID 0000.0001)           No. stops:          15
(PID.TID 0000.0001)   Seconds in section "EXCHANGES         [FIZHI_WRAPPER]":
(PID.TID 0000.0001)           User time:  0.17000000000001592
(PID.TID 0000.0001)         System time:   0.0000000000000000
(PID.TID 0000.0001)     Wall clock time:  0.18122124671936035
(PID.TID 0000.0001)          No. starts:          15
(PID.TID 0000.0001)           No. stops:          15
(PID.TID 0000.0001)   Seconds in section "DO_OCEANIC_PHYS     [FORWARD_STEP]":
(PID.TID 0000.0001)           User time:   0.0000000000000000
(PID.TID 0000.0001)         System time:   0.0000000000000000
(PID.TID 0000.0001)     Wall clock time:  2.36511230468750000E-003
(PID.TID 0000.0001)          No. starts:          15
(PID.TID 0000.0001)           No. stops:          15
(PID.TID 0000.0001)   Seconds in section "DYNAMICS            [FORWARD_STEP]":
(PID.TID 0000.0001)           User time:   7.5000000000000142
(PID.TID 0000.0001)         System time:   0.0000000000000000
(PID.TID 0000.0001)     Wall clock time:   7.4983150959014893
(PID.TID 0000.0001)          No. starts:          15
(PID.TID 0000.0001)           No. stops:          15
(PID.TID 0000.0001)   Seconds in section "UPDATE_R_STAR       [FORWARD_STEP]":
(PID.TID 0000.0001)           User time:  0.46000000000000796
(PID.TID 0000.0001)         System time:   0.0000000000000000
(PID.TID 0000.0001)     Wall clock time:  0.47710585594177246
(PID.TID 0000.0001)          No. starts:          15
(PID.TID 0000.0001)           No. stops:          15
(PID.TID 0000.0001)   Seconds in section "UPDATE_CG2D         [FORWARD_STEP]":
(PID.TID 0000.0001)           User time:  0.21999999999998465
(PID.TID 0000.0001)         System time:   0.0000000000000000
(PID.TID 0000.0001)     Wall clock time:  0.22606325149536133
(PID.TID 0000.0001)          No. starts:          15
(PID.TID 0000.0001)           No. stops:          15
(PID.TID 0000.0001)   Seconds in section "SOLVE_FOR_PRESSURE  [FORWARD_STEP]":
(PID.TID 0000.0001)           User time:  0.63000000000000966
(PID.TID 0000.0001)         System time:   0.0000000000000000
(PID.TID 0000.0001)     Wall clock time:  0.61770582199096680
(PID.TID 0000.0001)          No. starts:          15
(PID.TID 0000.0001)           No. stops:          15
(PID.TID 0000.0001)   Seconds in section "MOM_CORRECTION_STEP [FORWARD_STEP]":
(PID.TID 0000.0001)           User time:   6.1899999999999835
(PID.TID 0000.0001)         System time:   0.0000000000000000
(PID.TID 0000.0001)     Wall clock time:   6.2150003910064697
(PID.TID 0000.0001)          No. starts:          15
(PID.TID 0000.0001)           No. stops:          15
(PID.TID 0000.0001)   Seconds in section "SHAP_FILT_UV       [MOM_CORR_STEP]":
(PID.TID 0000.0001)           User time:   5.9799999999999756
(PID.TID 0000.0001)         System time:   0.0000000000000000
(PID.TID 0000.0001)     Wall clock time:   6.0051200389862061
(PID.TID 0000.0001)          No. starts:          15
(PID.TID 0000.0001)           No. stops:          15
(PID.TID 0000.0001)   Seconds in section "INTEGR_CONTINUITY   [FORWARD_STEP]":
(PID.TID 0000.0001)           User time:  0.69999999999998863
(PID.TID 0000.0001)         System time:   0.0000000000000000
(PID.TID 0000.0001)     Wall clock time:  0.68864893913269043
(PID.TID 0000.0001)          No. starts:          15
(PID.TID 0000.0001)           No. stops:          15
(PID.TID 0000.0001)   Seconds in section "CALC_R_STAR         [FORWARD_STEP]":
(PID.TID 0000.0001)           User time:  5.00000000000113687E-002
(PID.TID 0000.0001)         System time:   0.0000000000000000
(PID.TID 0000.0001)     Wall clock time:  6.16600513458251953E-002
(PID.TID 0000.0001)          No. starts:          15
(PID.TID 0000.0001)           No. stops:          15
(PID.TID 0000.0001)   Seconds in section "BLOCKING_EXCHANGES  [FORWARD_STEP]":
(PID.TID 0000.0001)           User time:  0.25000000000000000
(PID.TID 0000.0001)         System time:   0.0000000000000000
(PID.TID 0000.0001)     Wall clock time:  0.23213744163513184
(PID.TID 0000.0001)          No. starts:          30
(PID.TID 0000.0001)           No. stops:          30
(PID.TID 0000.0001)   Seconds in section "THERMODYNAMICS      [FORWARD_STEP]":
(PID.TID 0000.0001)           User time:   5.5500000000000114
(PID.TID 0000.0001)         System time:   0.0000000000000000
(PID.TID 0000.0001)     Wall clock time:   5.5710623264312744
(PID.TID 0000.0001)          No. starts:          15
(PID.TID 0000.0001)           No. stops:          15
(PID.TID 0000.0001)   Seconds in section "TRC_CORRECTION_STEP [FORWARD_STEP]":
(PID.TID 0000.0001)           User time:   3.7399999999999949
(PID.TID 0000.0001)         System time:   0.0000000000000000
(PID.TID 0000.0001)     Wall clock time:   3.7396872043609619
(PID.TID 0000.0001)          No. starts:          15
(PID.TID 0000.0001)           No. stops:          15
(PID.TID 0000.0001)   Seconds in section "SHAP_FILT_TS       [TRC_CORR_STEP]":
(PID.TID 0000.0001)           User time:   3.6299999999999812
(PID.TID 0000.0001)         System time:   0.0000000000000000
(PID.TID 0000.0001)     Wall clock time:   3.6313402652740479
(PID.TID 0000.0001)          No. starts:          15
(PID.TID 0000.0001)           No. stops:          15
(PID.TID 0000.0001)   Seconds in section "FIZHI               [FORWARD_STEP]":
(PID.TID 0000.0001)           User time:   5.7300000000000040
(PID.TID 0000.0001)         System time:  1.00000000000000089E-002
(PID.TID 0000.0001)     Wall clock time:   5.7454950809478760
(PID.TID 0000.0001)          No. starts:          15
(PID.TID 0000.0001)           No. stops:          15
(PID.TID 0000.0001)   Seconds in section "PHYS2DYN          [STEP_FIZHI_CORR]":
(PID.TID 0000.0001)           User time:   1.2900000000000063
(PID.TID 0000.0001)         System time:   0.0000000000000000
(PID.TID 0000.0001)     Wall clock time:   1.2924182415008545
(PID.TID 0000.0001)          No. starts:          15
(PID.TID 0000.0001)           No. stops:          15
(PID.TID 0000.0001)   Seconds in section "ATOC              [STEP_FIZHI_CORR]":
(PID.TID 0000.0001)           User time:  0.53000000000000114
(PID.TID 0000.0001)         System time:   0.0000000000000000
(PID.TID 0000.0001)     Wall clock time:  0.54934215545654297
(PID.TID 0000.0001)          No. starts:          15
(PID.TID 0000.0001)           No. stops:          15
(PID.TID 0000.0001)   Seconds in section "CTOA              [STEP_FIZHI_CORR]":
(PID.TID 0000.0001)           User time:  0.46999999999998465
(PID.TID 0000.0001)         System time:   0.0000000000000000
(PID.TID 0000.0001)     Wall clock time:  0.48352551460266113
(PID.TID 0000.0001)          No. starts:          15
(PID.TID 0000.0001)           No. stops:          15
(PID.TID 0000.0001)   Seconds in section "DYN2PHYS          [STEP_FIZHI_CORR]":
(PID.TID 0000.0001)           User time:   2.0300000000000011
(PID.TID 0000.0001)         System time:   0.0000000000000000
(PID.TID 0000.0001)     Wall clock time:   2.0248963832855225
(PID.TID 0000.0001)          No. starts:          15
(PID.TID 0000.0001)           No. stops:          15
(PID.TID 0000.0001)   Seconds in section "DO_STATEVARS_TAVE   [FORWARD_STEP]":
(PID.TID 0000.0001)           User time:   0.0000000000000000
(PID.TID 0000.0001)         System time:   0.0000000000000000
(PID.TID 0000.0001)     Wall clock time:  1.68561935424804688E-004
(PID.TID 0000.0001)          No. starts:          15
(PID.TID 0000.0001)           No. stops:          15
(PID.TID 0000.0001)   Seconds in section "MONITOR             [FORWARD_STEP]":
(PID.TID 0000.0001)           User time:   4.1000000000000085
(PID.TID 0000.0001)         System time:   0.0000000000000000
(PID.TID 0000.0001)     Wall clock time:   4.1079390048980713
(PID.TID 0000.0001)          No. starts:          15
(PID.TID 0000.0001)           No. stops:          15
(PID.TID 0000.0001)   Seconds in section "DO_THE_MODEL_IO     [FORWARD_STEP]":
(PID.TID 0000.0001)           User time:   1.0600000000000023
(PID.TID 0000.0001)         System time:  0.10000000000000009
(PID.TID 0000.0001)     Wall clock time:   16.417576551437378
(PID.TID 0000.0001)          No. starts:          15
(PID.TID 0000.0001)           No. stops:          15
(PID.TID 0000.0001)   Seconds in section "DO_WRITE_PICKUP     [FORWARD_STEP]":
(PID.TID 0000.0001)           User time:   0.0000000000000000
(PID.TID 0000.0001)         System time:   0.0000000000000000
(PID.TID 0000.0001)     Wall clock time:  1.81198120117187500E-004
(PID.TID 0000.0001)          No. starts:          15
(PID.TID 0000.0001)           No. stops:          15
(PID.TID 0000.0001) // ======================================================
(PID.TID 0000.0001) // Tile <-> Tile communication statistics
(PID.TID 0000.0001) // ======================================================
(PID.TID 0000.0001) // o Tile number: 000001
(PID.TID 0000.0001) //         No. X exchanges =              0
(PID.TID 0000.0001) //            Max. X spins =              0
(PID.TID 0000.0001) //            Min. X spins =     1000000000
(PID.TID 0000.0001) //          Total. X spins =              0
(PID.TID 0000.0001) //            Avg. X spins =       0.00E+00
(PID.TID 0000.0001) //         No. Y exchanges =              0
(PID.TID 0000.0001) //            Max. Y spins =              0
(PID.TID 0000.0001) //            Min. Y spins =     1000000000
(PID.TID 0000.0001) //          Total. Y spins =              0
(PID.TID 0000.0001) //            Avg. Y spins =       0.00E+00
(PID.TID 0000.0001) // o Tile number: 000002
(PID.TID 0000.0001) //         No. X exchanges =              0
(PID.TID 0000.0001) //            Max. X spins =              0
(PID.TID 0000.0001) //            Min. X spins =     1000000000
(PID.TID 0000.0001) //          Total. X spins =              0
(PID.TID 0000.0001) //            Avg. X spins =       0.00E+00
(PID.TID 0000.0001) //         No. Y exchanges =              0
(PID.TID 0000.0001) //            Max. Y spins =              0
(PID.TID 0000.0001) //            Min. Y spins =     1000000000
(PID.TID 0000.0001) //          Total. Y spins =              0
(PID.TID 0000.0001) //            Avg. Y spins =       0.00E+00
(PID.TID 0000.0001) // o Tile number: 000003
(PID.TID 0000.0001) //         No. X exchanges =              0
(PID.TID 0000.0001) //            Max. X spins =              0
(PID.TID 0000.0001) //            Min. X spins =     1000000000
(PID.TID 0000.0001) //          Total. X spins =              0
(PID.TID 0000.0001) //            Avg. X spins =       0.00E+00
(PID.TID 0000.0001) //         No. Y exchanges =              0
(PID.TID 0000.0001) //            Max. Y spins =              0
(PID.TID 0000.0001) //            Min. Y spins =     1000000000
(PID.TID 0000.0001) //          Total. Y spins =              0
(PID.TID 0000.0001) //            Avg. Y spins =       0.00E+00
(PID.TID 0000.0001) // o Tile number: 000004
(PID.TID 0000.0001) //         No. X exchanges =              0
(PID.TID 0000.0001) //            Max. X spins =              0
(PID.TID 0000.0001) //            Min. X spins =     1000000000
(PID.TID 0000.0001) //          Total. X spins =              0
(PID.TID 0000.0001) //            Avg. X spins =       0.00E+00
(PID.TID 0000.0001) //         No. Y exchanges =              0
(PID.TID 0000.0001) //            Max. Y spins =              0
(PID.TID 0000.0001) //            Min. Y spins =     1000000000
(PID.TID 0000.0001) //          Total. Y spins =              0
(PID.TID 0000.0001) //            Avg. Y spins =       0.00E+00
(PID.TID 0000.0001) // o Tile number: 000005
(PID.TID 0000.0001) //         No. X exchanges =              0
(PID.TID 0000.0001) //            Max. X spins =              0
(PID.TID 0000.0001) //            Min. X spins =     1000000000
(PID.TID 0000.0001) //          Total. X spins =              0
(PID.TID 0000.0001) //            Avg. X spins =       0.00E+00
(PID.TID 0000.0001) //         No. Y exchanges =              0
(PID.TID 0000.0001) //            Max. Y spins =              0
(PID.TID 0000.0001) //            Min. Y spins =     1000000000
(PID.TID 0000.0001) //          Total. Y spins =              0
(PID.TID 0000.0001) //            Avg. Y spins =       0.00E+00
(PID.TID 0000.0001) // o Tile number: 000006
(PID.TID 0000.0001) //         No. X exchanges =              0
(PID.TID 0000.0001) //            Max. X spins =              0
(PID.TID 0000.0001) //            Min. X spins =     1000000000
(PID.TID 0000.0001) //          Total. X spins =              0
(PID.TID 0000.0001) //            Avg. X spins =       0.00E+00
(PID.TID 0000.0001) //         No. Y exchanges =              0
(PID.TID 0000.0001) //            Max. Y spins =              0
(PID.TID 0000.0001) //            Min. Y spins =     1000000000
(PID.TID 0000.0001) //          Total. Y spins =              0
(PID.TID 0000.0001) //            Avg. Y spins =       0.00E+00
(PID.TID 0000.0001) // o Thread number: 000001
(PID.TID 0000.0001) //            No. barriers =           5648
(PID.TID 0000.0001) //      Max. barrier spins =              1
(PID.TID 0000.0001) //      Min. barrier spins =              1
(PID.TID 0000.0001) //     Total barrier spins =           5648
(PID.TID 0000.0001) //      Avg. barrier spins =       1.00E+00
PROGRAM MAIN: Execution ended Normally
