(PID.TID 0000.0001) 
(PID.TID 0000.0001) // ======================================================
(PID.TID 0000.0001) //                      MITgcm UV
(PID.TID 0000.0001) //                      =========
(PID.TID 0000.0001) // ======================================================
(PID.TID 0000.0001) // execution environment starting up...
(PID.TID 0000.0001) 
(PID.TID 0000.0001) // MITgcmUV version:  checkpoint64e
(PID.TID 0000.0001) // Build user:        jmc
(PID.TID 0000.0001) // Build host:        baudelaire
(PID.TID 0000.0001) // Build date:        Thu Mar 28 17:56:17 EDT 2013
(PID.TID 0000.0001) 
(PID.TID 0000.0001) // =======================================================
(PID.TID 0000.0001) // Execution Environment parameter file "eedata"
(PID.TID 0000.0001) // =======================================================
(PID.TID 0000.0001) ># Example "eedata" file
(PID.TID 0000.0001) ># Lines beginning "#" are comments
(PID.TID 0000.0001) ># nTx - No. threads per process in X
(PID.TID 0000.0001) ># nTy - No. threads per process in Y
(PID.TID 0000.0001) > &EEPARMS
(PID.TID 0000.0001) > nTx=1,
(PID.TID 0000.0001) > nTy=1,
(PID.TID 0000.0001) > /
(PID.TID 0000.0001) ># Note: Some systems use & as the
(PID.TID 0000.0001) ># namelist terminator. Other systems
(PID.TID 0000.0001) ># use a / character (as shown here).
(PID.TID 0000.0001) 
(PID.TID 0000.0001) // =======================================================
(PID.TID 0000.0001) // Computational Grid Specification ( see files "SIZE.h" )
(PID.TID 0000.0001) //                                  ( and "eedata"       )
(PID.TID 0000.0001) // =======================================================
(PID.TID 0000.0001)      nPx =    1 ; /* No. processes in X */
(PID.TID 0000.0001)      nPy =    1 ; /* No. processes in Y */
(PID.TID 0000.0001)      nSx =    2 ; /* No. tiles in X per process */
(PID.TID 0000.0001)      nSy =    2 ; /* No. tiles in Y per process */
(PID.TID 0000.0001)      sNx =   64 ; /* Tile size in X */
(PID.TID 0000.0001)      sNy =   32 ; /* Tile size in Y */
(PID.TID 0000.0001)      OLx =    4 ; /* Tile overlap distance in X */
(PID.TID 0000.0001)      OLy =    4 ; /* Tile overlap distance in Y */
(PID.TID 0000.0001)      nTx =    1 ; /* No. threads in X per process */
(PID.TID 0000.0001)      nTy =    1 ; /* No. threads in Y per process */
(PID.TID 0000.0001)       Nr =   15 ; /* No. levels in the vertical   */
(PID.TID 0000.0001)       Nx =  128 ; /* Total domain size in X ( = nPx*nSx*sNx ) */
(PID.TID 0000.0001)       Ny =   64 ; /* Total domain size in Y ( = nPy*nSy*sNy ) */
(PID.TID 0000.0001)   nTiles =    4 ; /* Total no. tiles per process ( = nSx*nSy ) */
(PID.TID 0000.0001)   nProcs =    1 ; /* Total no. processes ( = nPx*nPy ) */
(PID.TID 0000.0001) nThreads =    1 ; /* Total no. threads per process ( = nTx*nTy ) */
(PID.TID 0000.0001) usingMPI =    F ; /* Flag used to control whether MPI is in use */
(PID.TID 0000.0001)                   /*  note: To execute a program with MPI calls */
(PID.TID 0000.0001)                   /*  it must be launched appropriately e.g     */
(PID.TID 0000.0001)                   /*  "mpirun -np 64 ......"                    */
(PID.TID 0000.0001) useCoupler=    F ;/* Flag used to control communications with   */
(PID.TID 0000.0001)                   /*  other model components, through a coupler */
(PID.TID 0000.0001) debugMode =    F ; /* print debug msg. (sequence of S/R calls)  */
(PID.TID 0000.0001) printMapIncludesZeros=    F ; /* print zeros in Std.Output maps */
(PID.TID 0000.0001) maxLengthPrt1D=   65 /* maxLength of 1D array printed to StdOut */
(PID.TID 0000.0001) 
(PID.TID 0000.0001) // ======================================================
(PID.TID 0000.0001) // Mapping of tiles to threads
(PID.TID 0000.0001) // ======================================================
(PID.TID 0000.0001) // -o- Thread   1, tiles (   1:   2,   1:   2)
(PID.TID 0000.0001) 
(PID.TID 0000.0001) // ======================================================
(PID.TID 0000.0001) // Tile <-> Tile connectvity table
(PID.TID 0000.0001) // ======================================================
(PID.TID 0000.0001) // Tile number: 000001 (process no. = 000000)
(PID.TID 0000.0001) //        WEST: Tile = 000002, Process = 000000, Comm = put
(PID.TID 0000.0001) //                bi = 000002, bj = 000001
(PID.TID 0000.0001) //        EAST: Tile = 000002, Process = 000000, Comm = put
(PID.TID 0000.0001) //                bi = 000002, bj = 000001
(PID.TID 0000.0001) //       SOUTH: Tile = 000003, Process = 000000, Comm = put
(PID.TID 0000.0001) //                bi = 000001, bj = 000002
(PID.TID 0000.0001) //       NORTH: Tile = 000003, Process = 000000, Comm = put
(PID.TID 0000.0001) //                bi = 000001, bj = 000002
(PID.TID 0000.0001) // Tile number: 000002 (process no. = 000000)
(PID.TID 0000.0001) //        WEST: Tile = 000001, Process = 000000, Comm = put
(PID.TID 0000.0001) //                bi = 000001, bj = 000001
(PID.TID 0000.0001) //        EAST: Tile = 000001, Process = 000000, Comm = put
(PID.TID 0000.0001) //                bi = 000001, bj = 000001
(PID.TID 0000.0001) //       SOUTH: Tile = 000004, Process = 000000, Comm = put
(PID.TID 0000.0001) //                bi = 000002, bj = 000002
(PID.TID 0000.0001) //       NORTH: Tile = 000004, Process = 000000, Comm = put
(PID.TID 0000.0001) //                bi = 000002, bj = 000002
(PID.TID 0000.0001) // Tile number: 000003 (process no. = 000000)
(PID.TID 0000.0001) //        WEST: Tile = 000004, Process = 000000, Comm = put
(PID.TID 0000.0001) //                bi = 000002, bj = 000002
(PID.TID 0000.0001) //        EAST: Tile = 000004, Process = 000000, Comm = put
(PID.TID 0000.0001) //                bi = 000002, bj = 000002
(PID.TID 0000.0001) //       SOUTH: Tile = 000001, Process = 000000, Comm = put
(PID.TID 0000.0001) //                bi = 000001, bj = 000001
(PID.TID 0000.0001) //       NORTH: Tile = 000001, Process = 000000, Comm = put
(PID.TID 0000.0001) //                bi = 000001, bj = 000001
(PID.TID 0000.0001) // Tile number: 000004 (process no. = 000000)
(PID.TID 0000.0001) //        WEST: Tile = 000003, Process = 000000, Comm = put
(PID.TID 0000.0001) //                bi = 000001, bj = 000002
(PID.TID 0000.0001) //        EAST: Tile = 000003, Process = 000000, Comm = put
(PID.TID 0000.0001) //                bi = 000001, bj = 000002
(PID.TID 0000.0001) //       SOUTH: Tile = 000002, Process = 000000, Comm = put
(PID.TID 0000.0001) //                bi = 000002, bj = 000001
(PID.TID 0000.0001) //       NORTH: Tile = 000002, Process = 000000, Comm = put
(PID.TID 0000.0001) //                bi = 000002, bj = 000001
(PID.TID 0000.0001) 
(PID.TID 0000.0001)  INI_PARMS: opening model parameter file "data"
(PID.TID 0000.0001)  OPEN_COPY_DATA_FILE: opening file data
(PID.TID 0000.0001) // =======================================================
(PID.TID 0000.0001) // Parameter file "data"
(PID.TID 0000.0001) // =======================================================
(PID.TID 0000.0001) ># ====================
(PID.TID 0000.0001) ># | Model parameters |
(PID.TID 0000.0001) ># ====================
(PID.TID 0000.0001) >#
(PID.TID 0000.0001) ># Continuous equation parameters
(PID.TID 0000.0001) > &PARM01
(PID.TID 0000.0001) > tRef=15*20.,
(PID.TID 0000.0001) > sRef=15*35.,
(PID.TID 0000.0001) > viscA4=0.,
(PID.TID 0000.0001) > viscAh=2.E5,
(PID.TID 0000.0001) > diffKhT=0.E3,
(PID.TID 0000.0001) > diffKhS=0.E3,
(PID.TID 0000.0001) > viscAz=1.E-3,
(PID.TID 0000.0001) >#diffKzT=3.E-5,
(PID.TID 0000.0001) >#diffKzS=3.E-5,
(PID.TID 0000.0001) > diffKrBL79surf= 3.E-5,
(PID.TID 0000.0001) > diffKrBL79deep= 13.E-5,
(PID.TID 0000.0001) > diffKrBL79Ho  = -2000.,
(PID.TID 0000.0001) > diffKrBL79scl = 150.,
(PID.TID 0000.0001) > gravity=9.81,
(PID.TID 0000.0001) > rhoConst=1035.,
(PID.TID 0000.0001) > rhoConstFresh=1000.,
(PID.TID 0000.0001) > implicitFreeSurface=.TRUE.,
(PID.TID 0000.0001) > eosType='JMD95Z',
(PID.TID 0000.0001) > implicitDiffusion=.TRUE.,
(PID.TID 0000.0001) > implicitViscosity=.TRUE.,
(PID.TID 0000.0001) > ivdc_kappa=100.,
(PID.TID 0000.0001) > tempAdvScheme       = 2,
(PID.TID 0000.0001) > saltAdvScheme       = 2,
(PID.TID 0000.0001) > allowFreezing=.TRUE.,
(PID.TID 0000.0001) ># turn on looped cells
(PID.TID 0000.0001) > hFacMin=.1,
(PID.TID 0000.0001) > hFacMindz=50.,
(PID.TID 0000.0001) > useCDscheme=.TRUE.,
(PID.TID 0000.0001) > /
(PID.TID 0000.0001) >
(PID.TID 0000.0001) ># Elliptic solver parameters
(PID.TID 0000.0001) > &PARM02
(PID.TID 0000.0001) > cg2dMaxIters=1000,
(PID.TID 0000.0001) > cg2dTargetResidual=1.E-13,
(PID.TID 0000.0001) > /
(PID.TID 0000.0001) >
(PID.TID 0000.0001) ># Time stepping parameters
(PID.TID 0000.0001) > &PARM03
(PID.TID 0000.0001) > nIter0=5184000,
(PID.TID 0000.0001) > nTimeSteps = 4,
(PID.TID 0000.0001) > deltaTmom  = 900.,
(PID.TID 0000.0001) > tauCD =     321428.,
(PID.TID 0000.0001) > deltaTtracer= 43200.,
(PID.TID 0000.0001) > deltaTClock = 43200.,
(PID.TID 0000.0001) > abEps = 0.1,
(PID.TID 0000.0001) > pChkptFreq = 216000.,
(PID.TID 0000.0001) > chkptFreq  = 216000.,
(PID.TID 0000.0001) > dumpFreq   = 216000.,
(PID.TID 0000.0001) > taveFreq   = 216000.,
(PID.TID 0000.0001) > monitorFreq= 86400.,
(PID.TID 0000.0001) > tauThetaClimRelax = 5184000.,
(PID.TID 0000.0001) > tauSaltClimRelax  = 7776000.,
(PID.TID 0000.0001) > periodicExternalForcing=.TRUE.,
(PID.TID 0000.0001) > externForcingPeriod=2592000.,
(PID.TID 0000.0001) > externForcingCycle=31104000.,
(PID.TID 0000.0001) > monitorFreq= 1.,
(PID.TID 0000.0001) > adjMonitorFreq=1.,
(PID.TID 0000.0001) > /
(PID.TID 0000.0001) >
(PID.TID 0000.0001) ># Gridding parameters
(PID.TID 0000.0001) > &PARM04
(PID.TID 0000.0001) > usingSphericalPolarGrid=.TRUE.,
(PID.TID 0000.0001) > delZ=  50., 70.,  100., 140., 190.,
(PID.TID 0000.0001) >       240., 290., 340., 390., 440.,
(PID.TID 0000.0001) >       490., 540., 590., 640., 690.,
(PID.TID 0000.0001) > ygOrigin=-90.,
(PID.TID 0000.0001) > delX=128*2.8125,
(PID.TID 0000.0001) > delY=64*2.8125,
(PID.TID 0000.0001) > /
(PID.TID 0000.0001) >
(PID.TID 0000.0001) ># Input datasets
(PID.TID 0000.0001) > &PARM05
(PID.TID 0000.0001) > bathyFile=      'bathy.bin',
(PID.TID 0000.0001) > hydrogThetaFile='lev_clim_temp.bin',
(PID.TID 0000.0001) > hydrogSaltFile= 'lev_clim_salt.bin',
(PID.TID 0000.0001) > zonalWindFile=  'tren_taux.bin',
(PID.TID 0000.0001) > meridWindFile=  'tren_tauy.bin',
(PID.TID 0000.0001) > thetaClimFile=  'lev_monthly_temp.bin',
(PID.TID 0000.0001) > saltClimFile=   'lev_monthly_salt.bin',
(PID.TID 0000.0001) > surfQFile=      'shi_qnet.bin',
(PID.TID 0000.0001) > EmPmRFile=      'shi_empmr_year.bin',
(PID.TID 0000.0001) > the_run_name=   'Tutorial Biogeo',
(PID.TID 0000.0001) > /
(PID.TID 0000.0001) 
(PID.TID 0000.0001)  INI_PARMS ; starts to read PARM01
(PID.TID 0000.0001)  INI_PARMS ; read PARM01 : OK
(PID.TID 0000.0001)  INI_PARMS ; starts to read PARM02
(PID.TID 0000.0001)  INI_PARMS ; read PARM02 : OK
(PID.TID 0000.0001)  INI_PARMS ; starts to read PARM03
(PID.TID 0000.0001)  INI_PARMS ; read PARM03 : OK
(PID.TID 0000.0001)  INI_PARMS ; starts to read PARM04
(PID.TID 0000.0001)  INI_PARMS ; read PARM04 : OK
(PID.TID 0000.0001)  INI_PARMS ; starts to read PARM05
(PID.TID 0000.0001)  INI_PARMS ; read PARM05 : OK
(PID.TID 0000.0001)  INI_PARMS: finished reading file "data"
(PID.TID 0000.0001)  PACKAGES_BOOT: opening data.pkg
(PID.TID 0000.0001)  OPEN_COPY_DATA_FILE: opening file data.pkg
(PID.TID 0000.0001) // =======================================================
(PID.TID 0000.0001) // Parameter file "data.pkg"
(PID.TID 0000.0001) // =======================================================
(PID.TID 0000.0001) ># Packages
(PID.TID 0000.0001) > &PACKAGES
(PID.TID 0000.0001) > useGMRedi=.TRUE.,
(PID.TID 0000.0001) > usePTRACERS=.TRUE.,
(PID.TID 0000.0001) > useGCHEM=.TRUE.,
(PID.TID 0000.0001) > useMNC=.FALSE.,
(PID.TID 0000.0001) > useDiagnostics=.FALSE.,
(PID.TID 0000.0001) > useGrdchk    = .TRUE.,
(PID.TID 0000.0001) > /
(PID.TID 0000.0001) >
(PID.TID 0000.0001) 
(PID.TID 0000.0001)  PACKAGES_BOOT: finished reading data.pkg
(PID.TID 0000.0001)  GM_READPARMS: opening data.gmredi
(PID.TID 0000.0001)  OPEN_COPY_DATA_FILE: opening file data.gmredi
(PID.TID 0000.0001) // =======================================================
(PID.TID 0000.0001) // Parameter file "data.gmredi"
(PID.TID 0000.0001) // =======================================================
(PID.TID 0000.0001) ># GM+Redi package parameters:
(PID.TID 0000.0001) >#     GM_Small_Number  :: epsilon used in computing the slope
(PID.TID 0000.0001) >#     GM_slopeSqCutoff :: slope^2 cut-off value
(PID.TID 0000.0001) >
(PID.TID 0000.0001) >#-from MOM :
(PID.TID 0000.0001) ># GM_background_K: 	G & Mc.W  diffusion coefficient
(PID.TID 0000.0001) ># GM_maxSlope    :	max slope of isopycnals
(PID.TID 0000.0001) ># GM_Scrit       :	transition for scaling diffusion coefficient
(PID.TID 0000.0001) ># GM_Sd          :	half width scaling for diffusion coefficient
(PID.TID 0000.0001) ># GM_taper_scheme:	slope clipping or one of the tapering schemes
(PID.TID 0000.0001) ># GM_Kmin_horiz  :	horizontal diffusion minimum value
(PID.TID 0000.0001) >
(PID.TID 0000.0001) >#-Option parameters (needs to "define" options in GMREDI_OPTIONS.h")
(PID.TID 0000.0001) ># GM_isopycK     :	isopycnal diffusion coefficient (default=GM_background_K)
(PID.TID 0000.0001) ># GM_AdvForm     :	turn on GM Advective form       (default=Skew flux form)
(PID.TID 0000.0001) >
(PID.TID 0000.0001) > &GM_PARM01
(PID.TID 0000.0001) >  GM_Small_Number  = 1.D-20,
(PID.TID 0000.0001) >  GM_slopeSqCutoff = 1.D+08,
(PID.TID 0000.0001) >#  GM_AdvForm         = .TRUE.,
(PID.TID 0000.0001) >#  GM_isopycK         = 1.D+3,
(PID.TID 0000.0001) >  GM_background_K    = 1.D+3,
(PID.TID 0000.0001) >  GM_maxSlope        = 1.D-2,
(PID.TID 0000.0001) >  GM_taper_scheme    = 'dm95',
(PID.TID 0000.0001) >  GM_Kmin_horiz      = 50.,
(PID.TID 0000.0001) >  GM_Scrit           = 4.D-3,
(PID.TID 0000.0001) >  GM_Sd              = 1.D-3,
(PID.TID 0000.0001) >#
(PID.TID 0000.0001) >###  GM_Visbeck_alpha   = 1.5D-2,
(PID.TID 0000.0001) >###  GM_Visbeck_alpha   = 0.D0,
(PID.TID 0000.0001) >###  GM_Visbeck_length  = 2.D+5,
(PID.TID 0000.0001) >###  GM_Visbeck_depth   = 1.D+3,
(PID.TID 0000.0001) >###  GM_Visbeck_maxval_K= 2.5D+3,
(PID.TID 0000.0001) > /
(PID.TID 0000.0001) 
(PID.TID 0000.0001)  GM_READPARMS: finished reading data.gmredi
(PID.TID 0000.0001)  PTRACERS_READPARMS: opening data.ptracers
(PID.TID 0000.0001)  OPEN_COPY_DATA_FILE: opening file data.ptracers
(PID.TID 0000.0001) // =======================================================
(PID.TID 0000.0001) // Parameter file "data.ptracers"
(PID.TID 0000.0001) // =======================================================
(PID.TID 0000.0001) > &PTRACERS_PARM01
(PID.TID 0000.0001) > PTRACERS_numInUse=5,
(PID.TID 0000.0001) > PTRACERS_Iter0= 0,
(PID.TID 0000.0001) ># tracer 1 - dic
(PID.TID 0000.0001) > PTRACERS_names(1)='dic',
(PID.TID 0000.0001) > PTRACERS_long_names(1)='Dissolved Inorganic Carbon',
(PID.TID 0000.0001) > PTRACERS_units(1)='mol C/m^3',
(PID.TID 0000.0001) > PTRACERS_advScheme(1)=77,
(PID.TID 0000.0001) > PTRACERS_diffKh(1)=0.E3,
(PID.TID 0000.0001) > PTRACERS_diffKr(1)=3.E-5,
(PID.TID 0000.0001) > PTRACERS_useGMRedi(1)=.TRUE. ,
(PID.TID 0000.0001) > PTRACERS_useKPP(1)=.FALSE. ,
(PID.TID 0000.0001) > PTRACERS_initialFile(1)=' ',
(PID.TID 0000.0001) >#- use F95 syntax (to be converted with -DNML_EXTENDED_F77 if needed)
(PID.TID 0000.0001) > PTRACERS_ref(1:15,1) = 2.0282, 2.0609, 2.1206, 2.1581,
(PID.TID 0000.0001) >                     2.1904, 2.2188, 2.2474, 2.2699,
(PID.TID 0000.0001) >                     2.2792, 2.2814, 2.2815, 2.2806,
(PID.TID 0000.0001) >                     2.2800, 2.2760, 2.2758,
(PID.TID 0000.0001) > PTRACERS_EvPrRn(1)= 0.,
(PID.TID 0000.0001) ># tracer 2 - alk
(PID.TID 0000.0001) > PTRACERS_names(2)='alk',
(PID.TID 0000.0001) > PTRACERS_long_names(2)='Alkalinity',
(PID.TID 0000.0001) > PTRACERS_units(2)='mol eq/m^3',
(PID.TID 0000.0001) > PTRACERS_advScheme(2)=77,
(PID.TID 0000.0001) > PTRACERS_diffKh(2)=0.E3,
(PID.TID 0000.0001) > PTRACERS_diffKr(2)=3.E-5,
(PID.TID 0000.0001) > PTRACERS_useGMRedi(2)=.TRUE. ,
(PID.TID 0000.0001) > PTRACERS_useKPP(2)=.FALSE. ,
(PID.TID 0000.0001) > PTRACERS_initialFile(2)=' ',
(PID.TID 0000.0001) >#- use F95 syntax (to be converted with -DNML_EXTENDED_F77 if needed)
(PID.TID 0000.0001) > PTRACERS_ref(1:15,2) = 2.3086, 2.3149, 2.3164, 2.3112,
(PID.TID 0000.0001) >                     2.3098, 2.3160, 2.3313, 2.3517,
(PID.TID 0000.0001) >                     2.3667, 2.3761, 2.3832, 2.3862,
(PID.TID 0000.0001) >                     2.3881, 2.3863, 2.3867,
(PID.TID 0000.0001) > PTRACERS_EvPrRn(2)= 0.,
(PID.TID 0000.0001) ># tracer 3 - po4
(PID.TID 0000.0001) > PTRACERS_names(3)='po4',
(PID.TID 0000.0001) > PTRACERS_long_names(3)='Phosphate',
(PID.TID 0000.0001) > PTRACERS_units(3)='mol P/m^3',
(PID.TID 0000.0001) > PTRACERS_advScheme(3)=77,
(PID.TID 0000.0001) > PTRACERS_diffKh(3)=0.E3,
(PID.TID 0000.0001) > PTRACERS_diffKr(3)=3.E-5,
(PID.TID 0000.0001) > PTRACERS_useGMRedi(3)=.TRUE. ,
(PID.TID 0000.0001) > PTRACERS_useKPP(3)=.FALSE. ,
(PID.TID 0000.0001) > PTRACERS_initialFile(3)=' ',
(PID.TID 0000.0001) >#- use F95 syntax (to be converted with -DNML_EXTENDED_F77 if needed)
(PID.TID 0000.0001) > PTRACERS_ref(1:15,3) = 0.5438E-3, 0.7821E-3, 1.1335E-3, 1.4913E-3,
(PID.TID 0000.0001) >                     1.8606E-3, 2.1986E-3, 2.3966E-3, 2.4187E-3,
(PID.TID 0000.0001) >                     2.4046E-3, 2.3291E-3, 2.2922E-3, 2.2886E-3,
(PID.TID 0000.0001) >                     2.2608E-3, 2.2356E-3, 2.2296E-3,
(PID.TID 0000.0001) >#PTRACERS_EvPrRn(3)= 0.,
(PID.TID 0000.0001) ># tracer 4 - dop
(PID.TID 0000.0001) > PTRACERS_names(4)='dop',
(PID.TID 0000.0001) > PTRACERS_long_names(4)='Dissolved Organic Phosphorus',
(PID.TID 0000.0001) > PTRACERS_units(4)='mol P/m^3',
(PID.TID 0000.0001) > PTRACERS_advScheme(4)=77,
(PID.TID 0000.0001) > PTRACERS_diffKh(4)=0.E3,
(PID.TID 0000.0001) > PTRACERS_diffKr(4)=3.E-5,
(PID.TID 0000.0001) > PTRACERS_useGMRedi(4)=.TRUE.
(PID.TID 0000.0001) > PTRACERS_useKPP(4)=.FALSE. ,
(PID.TID 0000.0001) > PTRACERS_initialFile(4)=' ',
(PID.TID 0000.0001) >#- use F95 syntax (to be converted with -DNML_EXTENDED_F77 if needed)
(PID.TID 0000.0001) > PTRACERS_ref(1:15,4) = 15*0.,
(PID.TID 0000.0001) >#PTRACERS_EvPrRn(4)= 0.,
(PID.TID 0000.0001) ># tracer 5 - o2
(PID.TID 0000.0001) > PTRACERS_names(5)='o2',
(PID.TID 0000.0001) > PTRACERS_long_names(5)='Dissolved Oxygen',
(PID.TID 0000.0001) > PTRACERS_units(5)='mol O/m^3',
(PID.TID 0000.0001) > PTRACERS_advScheme(5)=77,
(PID.TID 0000.0001) > PTRACERS_diffKh(5)=0.E3,
(PID.TID 0000.0001) > PTRACERS_diffKr(5)=3.E-5,
(PID.TID 0000.0001) > PTRACERS_useGMRedi(5)=.TRUE.
(PID.TID 0000.0001) > PTRACERS_useKPP(5)=.FALSE. ,
(PID.TID 0000.0001) > PTRACERS_initialFile(5)=' ',
(PID.TID 0000.0001) >#- use F95 syntax (to be converted with -DNML_EXTENDED_F77 if needed)
(PID.TID 0000.0001) > PTRACERS_ref(1:15,5) = 0.2457, 0.2336, 0.1975, 0.1729,
(PID.TID 0000.0001) >                     0.1591, 0.1503, 0.1424, 0.1445,
(PID.TID 0000.0001) >                     0.1549, 0.1661, 0.1774, 0.1863,
(PID.TID 0000.0001) >                     0.1925, 0.2021, 0.2051,
(PID.TID 0000.0001) >#PTRACERS_EvPrRn(5)= 0.,
(PID.TID 0000.0001) > /
(PID.TID 0000.0001) 
(PID.TID 0000.0001)  PTRACERS_READPARMS: finished reading data.ptracers
(PID.TID 0000.0001)  GCHEM_READPARMS: opening data.gchem
(PID.TID 0000.0001)  OPEN_COPY_DATA_FILE: opening file data.gchem
(PID.TID 0000.0001) // =======================================================
(PID.TID 0000.0001) // Parameter file "data.gchem"
(PID.TID 0000.0001) // =======================================================
(PID.TID 0000.0001) > &GCHEM_PARM01
(PID.TID 0000.0001) >  useDIC=.TRUE.,
(PID.TID 0000.0001) >  nsubtime=1,
(PID.TID 0000.0001) > /
(PID.TID 0000.0001) 
(PID.TID 0000.0001)  GCHEM_READPARMS: finished reading data.gchem
(PID.TID 0000.0001)  DIC_READPARMS: opening data.dic
(PID.TID 0000.0001)  OPEN_COPY_DATA_FILE: opening file data.dic
(PID.TID 0000.0001) // =======================================================
(PID.TID 0000.0001) // Parameter file "data.dic"
(PID.TID 0000.0001) // =======================================================
(PID.TID 0000.0001) ># DIC parameters
(PID.TID 0000.0001) > &ABIOTIC_PARMS
(PID.TID 0000.0001) > /
(PID.TID 0000.0001) >
(PID.TID 0000.0001) > &BIOTIC_PARMS
(PID.TID 0000.0001) >  alphaUniform = 0.97e-10,
(PID.TID 0000.0001) >  rainRatioUniform = 5.e-2,
(PID.TID 0000.0001) >  KRemin = 0.95,
(PID.TID 0000.0001) > /
(PID.TID 0000.0001) >
(PID.TID 0000.0001) > &DIC_FORCING
(PID.TID 0000.0001) >  DIC_iceFile='fice.bin',
(PID.TID 0000.0001) >  DIC_windFile='tren_speed.bin',
(PID.TID 0000.0001) >  DIC_silicaFile='sillev1.bin',
(PID.TID 0000.0001) > /
(PID.TID 0000.0001) 
(PID.TID 0000.0001)  DIC_READPARMS: finished reading data.dic
(PID.TID 0000.0001) 
(PID.TID 0000.0001) // ===================================
(PID.TID 0000.0001) // DIC package parameters :
(PID.TID 0000.0001) // ===================================
(PID.TID 0000.0001) permil = /* Ref. density to convert mol/m3 to mol/kg */
(PID.TID 0000.0001)                 9.760858955588092E-04
(PID.TID 0000.0001)     ;
(PID.TID 0000.0001) Pa2Atm = /* Atmosph. pressure conversion coeff (to Atm) */
(PID.TID 0000.0001)                 1.013250000000000E+05
(PID.TID 0000.0001)     ;
(PID.TID 0000.0001) DOPfraction = /* Fraction of new production going to DOP */
(PID.TID 0000.0001)                 6.700000000000000E-01
(PID.TID 0000.0001)     ;
(PID.TID 0000.0001) KDOPRemin = /* DOP remineralization rate (1/s) */
(PID.TID 0000.0001)                 6.430041152263375E-08
(PID.TID 0000.0001)     ;
(PID.TID 0000.0001) KRemin = /* Remin power law coeff. */
(PID.TID 0000.0001)                 9.500000000000000E-01
(PID.TID 0000.0001)     ;
(PID.TID 0000.0001) zcrit = /* Minimum depth for biological activity (m) */
(PID.TID 0000.0001)                 5.000000000000000E+02
(PID.TID 0000.0001)     ;
(PID.TID 0000.0001) O2crit = /* Critical oxygen level (mol/m3) */
(PID.TID 0000.0001)                 4.000000000000000E-03
(PID.TID 0000.0001)     ;
(PID.TID 0000.0001) R_OP = /* Stochiometric ratio R_OP */
(PID.TID 0000.0001)                -1.700000000000000E+02
(PID.TID 0000.0001)     ;
(PID.TID 0000.0001) R_CP = /* Stochiometric ratio R_CP */
(PID.TID 0000.0001)                 1.170000000000000E+02
(PID.TID 0000.0001)     ;
(PID.TID 0000.0001) R_NP = /* Stochiometric ratio R_NP */
(PID.TID 0000.0001)                 1.600000000000000E+01
(PID.TID 0000.0001)     ;
(PID.TID 0000.0001) R_FeP = /* Stochiometric ratio R_FeP */
(PID.TID 0000.0001)                 4.680000000000000E-04
(PID.TID 0000.0001)     ;
(PID.TID 0000.0001) zca = /* Scale depth for CaCO3 remineralization (m) */
(PID.TID 0000.0001)                 3.500000000000000E+03
(PID.TID 0000.0001)     ;
(PID.TID 0000.0001) parfrac = /* Fraction of Qsw that is PAR */
(PID.TID 0000.0001)                 4.000000000000000E-01
(PID.TID 0000.0001)     ;
(PID.TID 0000.0001) k0 = /* Light attentuation coefficient (1/m) */
(PID.TID 0000.0001)                 2.000000000000000E-02
(PID.TID 0000.0001)     ;
(PID.TID 0000.0001) lit0 = /* Half saturation light constant (W/m2) */
(PID.TID 0000.0001)                 3.000000000000000E+01
(PID.TID 0000.0001)     ;
(PID.TID 0000.0001) KPO4 = /* Half saturation phosphate constant (mol/m3) */
(PID.TID 0000.0001)                 5.000000000000000E-04
(PID.TID 0000.0001)     ;
(PID.TID 0000.0001) KFE = /* Half saturation fe constant (mol/m3) */
(PID.TID 0000.0001)                 1.200000000000000E-07
(PID.TID 0000.0001)     ;
(PID.TID 0000.0001) alpfe = /* Solubility of aeolian fe */
(PID.TID 0000.0001)                 1.000000000000000E-02
(PID.TID 0000.0001)     ;
(PID.TID 0000.0001) freefemax = /* Max solubility of free iron (mol/m3) */
(PID.TID 0000.0001)                 3.000000000000000E-07
(PID.TID 0000.0001)     ;
(PID.TID 0000.0001) KScav = /* Iron scavenging rate */
(PID.TID 0000.0001)                 6.108539094650206E-09
(PID.TID 0000.0001)     ;
(PID.TID 0000.0001) ligand_stab = /* Ligand-free iron stability constant (m3/mol) */
(PID.TID 0000.0001)                 1.000000000000000E+08
(PID.TID 0000.0001)     ;
(PID.TID 0000.0001) ligand_tot = /* Total free ligand  (mol/m3) */
(PID.TID 0000.0001)                 1.000000000000000E-06
(PID.TID 0000.0001)     ;
(PID.TID 0000.0001) alphaUniform = /* Timescale for biological activity */
(PID.TID 0000.0001)                 9.700000000000000E-11
(PID.TID 0000.0001)     ;
(PID.TID 0000.0001) rainRatioUniform= /* Inorganic/organic carbon rain ratio */
(PID.TID 0000.0001)                 5.000000000000000E-02
(PID.TID 0000.0001)     ;
(PID.TID 0000.0001) QSW_underice  =  /* Flag for Qsw under Sea-Ice (i.e. SI fract included) */
(PID.TID 0000.0001)                   F
(PID.TID 0000.0001)     ;
(PID.TID 0000.0001) DIC_windFile =  /* File name of wind speeds */
(PID.TID 0000.0001)               'tren_speed.bin'
(PID.TID 0000.0001)     ;
(PID.TID 0000.0001) DIC_atmospFile=  /* File name of atmospheric pressure*/
(PID.TID 0000.0001)               ''
(PID.TID 0000.0001)     ;
(PID.TID 0000.0001) DIC_iceFile =  /* File name of seaice fraction */
(PID.TID 0000.0001)               'fice.bin'
(PID.TID 0000.0001)     ;
(PID.TID 0000.0001) DIC_ironFile =  /* File name of aeolian iron flux */
(PID.TID 0000.0001)               ''
(PID.TID 0000.0001)     ;
(PID.TID 0000.0001) DIC_silicaFile=  /* File name of surface silica */
(PID.TID 0000.0001)               'sillev1.bin'
(PID.TID 0000.0001)     ;
(PID.TID 0000.0001) DIC_parFile=  /* File name of photosynthetically available radiation */
(PID.TID 0000.0001)               ''
(PID.TID 0000.0001)     ;
(PID.TID 0000.0001) DIC_forcingPeriod = /* Periodic forcing parameter specific for DIC (s) */
(PID.TID 0000.0001)                 2.592000000000000E+06
(PID.TID 0000.0001)     ;
(PID.TID 0000.0001) DIC_forcingCycle = /* Periodic forcing parameter specific for DIC (s) */
(PID.TID 0000.0001)                 3.110400000000000E+07
(PID.TID 0000.0001)     ;
(PID.TID 0000.0001) dic_int1 =  /*  */
(PID.TID 0000.0001)                       0
(PID.TID 0000.0001)     ;
(PID.TID 0000.0001) dic_int2 =  /*  */
(PID.TID 0000.0001)                       0
(PID.TID 0000.0001)     ;
(PID.TID 0000.0001) dic_int3 =  /*  */
(PID.TID 0000.0001)                       0
(PID.TID 0000.0001)     ;
(PID.TID 0000.0001) dic_int4 =  /*  */
(PID.TID 0000.0001)                       0
(PID.TID 0000.0001)     ;
(PID.TID 0000.0001) dic_pCO2 = /* Atmospheric pCO2 to be read in data.dic */
(PID.TID 0000.0001)                 2.780000000000000E-04
(PID.TID 0000.0001)     ;
(PID.TID 0000.0001) AUTODIFF_READPARMS: opening data.autodiff
(PID.TID 0000.0001)  OPEN_COPY_DATA_FILE: opening file data.autodiff
(PID.TID 0000.0001) // =======================================================
(PID.TID 0000.0001) // Parameter file "data.autodiff"
(PID.TID 0000.0001) // =======================================================
(PID.TID 0000.0001) ># =========================
(PID.TID 0000.0001) ># pkg AUTODIFF parameters :
(PID.TID 0000.0001) ># =========================
(PID.TID 0000.0001) >#  inAdExact :: get an exact adjoint (no approximation) (def=.True.)
(PID.TID 0000.0001) >#
(PID.TID 0000.0001) > &AUTODIFF_PARM01
(PID.TID 0000.0001) ># inAdExact = .FALSE.,
(PID.TID 0000.0001) > /
(PID.TID 0000.0001) 
(PID.TID 0000.0001) AUTODIFF_READPARMS: finished reading data.autodiff
(PID.TID 0000.0001) // ===================================
(PID.TID 0000.0001) // AUTODIFF parameters :
(PID.TID 0000.0001) // ===================================
(PID.TID 0000.0001) inAdExact = /* get an exact adjoint (no approximation) */
(PID.TID 0000.0001)                   T
(PID.TID 0000.0001)     ;
(PID.TID 0000.0001) useKPPinAdMode = /* use KPP in adjoint mode */
(PID.TID 0000.0001)                   F
(PID.TID 0000.0001)     ;
(PID.TID 0000.0001) useGMRediInAdMode = /* use GMRedi in adjoint mode */
(PID.TID 0000.0001)                   T
(PID.TID 0000.0001)     ;
(PID.TID 0000.0001) useSEAICEinAdMode = /* use SEAICE in adjoint mode */
(PID.TID 0000.0001)                   F
(PID.TID 0000.0001)     ;
(PID.TID 0000.0001) useGGL90inAdMode = /* use GGL90 in adjoint mode */
(PID.TID 0000.0001)                   F
(PID.TID 0000.0001)     ;
(PID.TID 0000.0001) useSALT_PLUMEinAdMode = /* use SALT_PLUME in adjoint mode */
(PID.TID 0000.0001)                   F
(PID.TID 0000.0001)     ;
(PID.TID 0000.0001) dumpAdVarExch = /* control adexch before dumpinp */
(PID.TID 0000.0001)                       2
(PID.TID 0000.0001)     ;
(PID.TID 0000.0001) mon_AdVarExch = /* control adexch before monitor */
(PID.TID 0000.0001)                       2
(PID.TID 0000.0001)     ;
(PID.TID 0000.0001) 
(PID.TID 0000.0001) OPTIM_READPARMS: opening data.optim
(PID.TID 0000.0001)  OPEN_COPY_DATA_FILE: opening file data.optim
(PID.TID 0000.0001) // =======================================================
(PID.TID 0000.0001) // Parameter file "data.optim"
(PID.TID 0000.0001) // =======================================================
(PID.TID 0000.0001) >#
(PID.TID 0000.0001) ># ********************************
(PID.TID 0000.0001) ># Off-line optimization parameters
(PID.TID 0000.0001) ># ********************************
(PID.TID 0000.0001) > &OPTIM
(PID.TID 0000.0001) > optimcycle=0,
(PID.TID 0000.0001) > /
(PID.TID 0000.0001) 
(PID.TID 0000.0001) OPTIM_READPARMS: finished reading data.optim
(PID.TID 0000.0001) CTRL_READPARMS: opening data.ctrl
(PID.TID 0000.0001)  OPEN_COPY_DATA_FILE: opening file data.ctrl
(PID.TID 0000.0001) // =======================================================
(PID.TID 0000.0001) // Parameter file "data.ctrl"
(PID.TID 0000.0001) // =======================================================
(PID.TID 0000.0001) >#
(PID.TID 0000.0001) >#
(PID.TID 0000.0001) ># *********************
(PID.TID 0000.0001) ># ECCO controlvariables
(PID.TID 0000.0001) ># *********************
(PID.TID 0000.0001) > &CTRL_NML
(PID.TID 0000.0001) > xx_theta_file      = 'xx_theta',
(PID.TID 0000.0001) > xx_salt_file       = 'xx_salt',
(PID.TID 0000.0001) > xx_tr1_file        = 'xx_tr1',
(PID.TID 0000.0001) > xx_hflux_file      = 'xx_hflux',
(PID.TID 0000.0001) > xx_sflux_file      = 'xx_sflux',
(PID.TID 0000.0001) > xx_tauu_file       = 'xx_tauu',
(PID.TID 0000.0001) > xx_tauv_file       = 'xx_tauv',
(PID.TID 0000.0001) > xx_diffkr_file     = 'xx_diffkr',
(PID.TID 0000.0001) > xx_kapgm_file      = 'xx_kapgm',
(PID.TID 0000.0001) > /
(PID.TID 0000.0001) >#
(PID.TID 0000.0001) ># *********************
(PID.TID 0000.0001) ># names for ctrl_pack/unpack
(PID.TID 0000.0001) ># *********************
(PID.TID 0000.0001) > &CTRL_PACKNAMES
(PID.TID 0000.0001) > ctrlname = 'ecco_ctrl',
(PID.TID 0000.0001) > costname = 'ecco_cost',
(PID.TID 0000.0001) > scalname = 'ecco_scal',
(PID.TID 0000.0001) > maskname = 'ecco_mask',
(PID.TID 0000.0001) > metaname = 'ecco_meta',
(PID.TID 0000.0001) > /
(PID.TID 0000.0001) >
(PID.TID 0000.0001) 
(PID.TID 0000.0001) CTRL_READPARMS: finished reading data.ctrl
(PID.TID 0000.0001) COST_READPARMS: opening data.cost
(PID.TID 0000.0001)  OPEN_COPY_DATA_FILE: opening file data.cost
(PID.TID 0000.0001) // =======================================================
(PID.TID 0000.0001) // Parameter file "data.cost"
(PID.TID 0000.0001) // =======================================================
(PID.TID 0000.0001) >#
(PID.TID 0000.0001) >#
(PID.TID 0000.0001) ># ******************
(PID.TID 0000.0001) ># ECCO cost function
(PID.TID 0000.0001) ># ******************
(PID.TID 0000.0001) > &COST_NML
(PID.TID 0000.0001) >#
(PID.TID 0000.0001) > mult_tracer  = 1.,
(PID.TID 0000.0001) > mult_test    = 1.,
(PID.TID 0000.0001) > mult_atl     = 1.,
(PID.TID 0000.0001) > /
(PID.TID 0000.0001) 
(PID.TID 0000.0001) COST_READPARMS: finished reading data.cost
(PID.TID 0000.0001) GRDCHK_READPARMS: opening data.grdchk
(PID.TID 0000.0001)  OPEN_COPY_DATA_FILE: opening file data.grdchk
(PID.TID 0000.0001) // =======================================================
(PID.TID 0000.0001) // Parameter file "data.grdchk"
(PID.TID 0000.0001) // =======================================================
(PID.TID 0000.0001) >
(PID.TID 0000.0001) ># *******************
(PID.TID 0000.0001) ># ECCO gradient check
(PID.TID 0000.0001) ># *******************
(PID.TID 0000.0001) > &GRDCHK_NML
(PID.TID 0000.0001) > grdchk_eps       = 1.d-5,
(PID.TID 0000.0001) > nbeg             = 1,
(PID.TID 0000.0001) > nstep            = 1,
(PID.TID 0000.0001) > nend             = 4,
(PID.TID 0000.0001) ># to test xx_tr1 set 17
(PID.TID 0000.0001) > grdchkvarindex   = 1,
(PID.TID 0000.0001) > iGloPos  =10,
(PID.TID 0000.0001) > jGloPos  =10,
(PID.TID 0000.0001) > kGloPos  =1,
(PID.TID 0000.0001) > /
(PID.TID 0000.0001) 
(PID.TID 0000.0001) GRDCHK_READPARMS: finished reading data.grdchk
(PID.TID 0000.0001) 
(PID.TID 0000.0001) // =======================================================
(PID.TID 0000.0001) // Gradient check configuration  >>> START <<<
(PID.TID 0000.0001) // =======================================================
(PID.TID 0000.0001) 
(PID.TID 0000.0001)   eps:                              0.100E-04
(PID.TID 0000.0001)   First location:                           1
(PID.TID 0000.0001)   Last location:                            4
(PID.TID 0000.0001)   Increment:                                1
(PID.TID 0000.0001)   grdchkWhichProc:                          0
(PID.TID 0000.0001)   iLocTile =       1  ,    jLocTile =       1
(PID.TID 0000.0001) 
(PID.TID 0000.0001) // =======================================================
(PID.TID 0000.0001) // Gradient check configuration  >>> END <<<
(PID.TID 0000.0001) // =======================================================
(PID.TID 0000.0001) 
(PID.TID 0000.0001) SET_PARMS: done
(PID.TID 0000.0001) Enter INI_VERTICAL_GRID: setInterFDr=    T ; setCenterDr=    F
(PID.TID 0000.0001) %MON XC_max                       =   3.5859375000000E+02
(PID.TID 0000.0001) %MON XC_min                       =   1.4062500000000E+00
(PID.TID 0000.0001) %MON XC_mean                      =   1.8000000000000E+02
(PID.TID 0000.0001) %MON XC_sd                        =   1.0391987692599E+02
(PID.TID 0000.0001) %MON XG_max                       =   3.5718750000000E+02
(PID.TID 0000.0001) %MON XG_min                       =   0.0000000000000E+00
(PID.TID 0000.0001) %MON XG_mean                      =   1.7859375000000E+02
(PID.TID 0000.0001) %MON XG_sd                        =   1.0391987692599E+02
(PID.TID 0000.0001) %MON DXC_max                      =   3.1259246843155E+05
(PID.TID 0000.0001) %MON DXC_min                      =   7.6737143816223E+03
(PID.TID 0000.0001) %MON DXC_mean                     =   1.9908248704234E+05
(PID.TID 0000.0001) %MON DXC_sd                       =   9.6190602240067E+04
(PID.TID 0000.0001) %MON DXF_max                      =   3.1259246843155E+05
(PID.TID 0000.0001) %MON DXF_min                      =   7.6737143816223E+03
(PID.TID 0000.0001) %MON DXF_mean                     =   1.9908248704234E+05
(PID.TID 0000.0001) %MON DXF_sd                       =   9.6190602240067E+04
(PID.TID 0000.0001) %MON DXG_max                      =   3.1268664380261E+05
(PID.TID 0000.0001) %MON DXG_min                      =   0.0000000000000E+00
(PID.TID 0000.0001) %MON DXG_mean                     =   1.9902252711933E+05
(PID.TID 0000.0001) %MON DXG_sd                       =   9.6314600686012E+04
(PID.TID 0000.0001) %MON DXV_max                      =   3.1268664380261E+05
(PID.TID 0000.0001) %MON DXV_min                      =   0.0000000000000E+00
(PID.TID 0000.0001) %MON DXV_mean                     =   1.9902252711933E+05
(PID.TID 0000.0001) %MON DXV_sd                       =   9.6314600686012E+04
(PID.TID 0000.0001) %MON YC_max                       =   8.8593750000000E+01
(PID.TID 0000.0001) %MON YC_min                       =  -8.8593750000000E+01
(PID.TID 0000.0001) %MON YC_mean                      =   0.0000000000000E+00
(PID.TID 0000.0001) %MON YC_sd                        =   5.1955180880375E+01
(PID.TID 0000.0001) %MON YG_max                       =   8.7187500000000E+01
(PID.TID 0000.0001) %MON YG_min                       =  -9.0000000000000E+01
(PID.TID 0000.0001) %MON YG_mean                      =  -1.4062500000000E+00
(PID.TID 0000.0001) %MON YG_sd                        =   5.1955180880375E+01
(PID.TID 0000.0001) %MON DYC_max                      =   3.1268664380261E+05
(PID.TID 0000.0001) %MON DYC_min                      =   3.1268664380261E+05
(PID.TID 0000.0001) %MON DYC_mean                     =   3.1268664380260E+05
(PID.TID 0000.0001) %MON DYC_sd                       =   4.3655745685101E-09
(PID.TID 0000.0001) %MON DYF_max                      =   3.1268664380261E+05
(PID.TID 0000.0001) %MON DYF_min                      =   3.1268664380261E+05
(PID.TID 0000.0001) %MON DYF_mean                     =   3.1268664380260E+05
(PID.TID 0000.0001) %MON DYF_sd                       =   4.3655745685101E-09
(PID.TID 0000.0001) %MON DYG_max                      =   3.1268664380261E+05
(PID.TID 0000.0001) %MON DYG_min                      =   3.1268664380261E+05
(PID.TID 0000.0001) %MON DYG_mean                     =   3.1268664380260E+05
(PID.TID 0000.0001) %MON DYG_sd                       =   4.3655745685101E-09
(PID.TID 0000.0001) %MON DYU_max                      =   3.1268664380261E+05
(PID.TID 0000.0001) %MON DYU_min                      =   3.1268664380261E+05
(PID.TID 0000.0001) %MON DYU_mean                     =   3.1268664380260E+05
(PID.TID 0000.0001) %MON DYU_sd                       =   4.3655745685101E-09
(PID.TID 0000.0001) %MON RA_max                       =   9.7733676797555E+10
(PID.TID 0000.0001) %MON RA_min                       =   2.3992270990190E+09
(PID.TID 0000.0001) %MON RA_mean                      =   6.2244185031956E+10
(PID.TID 0000.0001) %MON RA_sd                        =   3.0074496923945E+10
(PID.TID 0000.0001) %MON RAW_max                      =   9.7733676797555E+10
(PID.TID 0000.0001) %MON RAW_min                      =   2.3992270990190E+09
(PID.TID 0000.0001) %MON RAW_mean                     =   6.2244185031956E+10
(PID.TID 0000.0001) %MON RAW_sd                       =   3.0074496923945E+10
(PID.TID 0000.0001) %MON RAS_max                      =   9.7763121221868E+10
(PID.TID 0000.0001) %MON RAS_min                      =   0.0000000000000E+00
(PID.TID 0000.0001) %MON RAS_mean                     =   6.2225438247155E+10
(PID.TID 0000.0001) %MON RAS_sd                       =   3.0113265689232E+10
(PID.TID 0000.0001) %MON RAZ_max                      =   9.7763121221868E+10
(PID.TID 0000.0001) %MON RAZ_min                      =   0.0000000000000E+00
(PID.TID 0000.0001) %MON RAZ_mean                     =   6.2225438247155E+10
(PID.TID 0000.0001) %MON RAZ_sd                       =   3.0113265689232E+10
(PID.TID 0000.0001) %MON AngleCS_max                  =   1.0000000000000E+00
(PID.TID 0000.0001) %MON AngleCS_min                  =   1.0000000000000E+00
(PID.TID 0000.0001) %MON AngleCS_mean                 =   1.0000000000000E+00
(PID.TID 0000.0001) %MON AngleCS_sd                   =   0.0000000000000E+00
(PID.TID 0000.0001) %MON AngleSN_max                  =   0.0000000000000E+00
(PID.TID 0000.0001) %MON AngleSN_min                  =   0.0000000000000E+00
(PID.TID 0000.0001) %MON AngleSN_mean                 =   0.0000000000000E+00
(PID.TID 0000.0001) %MON AngleSN_sd                   =   0.0000000000000E+00
(PID.TID 0000.0001) GAD_INIT_FIXED: GAD_OlMinSize=  1  0  1
(PID.TID 0000.0001) 
(PID.TID 0000.0001) // ===================================
(PID.TID 0000.0001) // GAD parameters :
(PID.TID 0000.0001) // ===================================
(PID.TID 0000.0001) tempAdvScheme =   /* Temp. Horiz.Advection scheme selector */
(PID.TID 0000.0001)                       2
(PID.TID 0000.0001)     ;
(PID.TID 0000.0001) tempVertAdvScheme =   /* Temp. Vert. Advection scheme selector */
(PID.TID 0000.0001)                       2
(PID.TID 0000.0001)     ;
(PID.TID 0000.0001) tempMultiDimAdvec =   /* use Muti-Dim Advec method for Temp */
(PID.TID 0000.0001)                   F
(PID.TID 0000.0001)     ;
(PID.TID 0000.0001) tempSOM_Advection = /* use 2nd Order Moment Advection for Temp */
(PID.TID 0000.0001)                   F
(PID.TID 0000.0001)     ;
(PID.TID 0000.0001) AdamsBashforthGt = /* apply Adams-Bashforth extrapolation on Gt */
(PID.TID 0000.0001)                   T
(PID.TID 0000.0001)     ;
(PID.TID 0000.0001) AdamsBashforth_T = /* apply Adams-Bashforth extrapolation on Temp */
(PID.TID 0000.0001)                   F
(PID.TID 0000.0001)     ;
(PID.TID 0000.0001) saltAdvScheme =   /* Salt. Horiz.advection scheme selector */
(PID.TID 0000.0001)                       2
(PID.TID 0000.0001)     ;
(PID.TID 0000.0001) saltVertAdvScheme =   /* Salt. Vert. Advection scheme selector */
(PID.TID 0000.0001)                       2
(PID.TID 0000.0001)     ;
(PID.TID 0000.0001) saltMultiDimAdvec =   /* use Muti-Dim Advec method for Salt */
(PID.TID 0000.0001)                   F
(PID.TID 0000.0001)     ;
(PID.TID 0000.0001) saltSOM_Advection = /* use 2nd Order Moment Advection for Salt */
(PID.TID 0000.0001)                   F
(PID.TID 0000.0001)     ;
(PID.TID 0000.0001) AdamsBashforthGs = /* apply Adams-Bashforth extrapolation on Gs */
(PID.TID 0000.0001)                   T
(PID.TID 0000.0001)     ;
(PID.TID 0000.0001) AdamsBashforth_S = /* apply Adams-Bashforth extrapolation on Salt */
(PID.TID 0000.0001)                   F
(PID.TID 0000.0001)     ;
(PID.TID 0000.0001) // ===================================
(PID.TID 0000.0001) ctrl-wet 1:    nvarlength =       240064
(PID.TID 0000.0001) ctrl-wet 2: surface wet C =         1300
(PID.TID 0000.0001) ctrl-wet 3: surface wet W =         1246
(PID.TID 0000.0001) ctrl-wet 4: surface wet S =         1205
(PID.TID 0000.0001) ctrl-wet 4a:surface wet V =            0
(PID.TID 0000.0001) ctrl-wet 5: 3D wet points =        16159
(PID.TID 0000.0001) ctrl-wet 6: no recs for i =     1           1
(PID.TID 0000.0001) ctrl-wet 6: no recs for i =     2           1
(PID.TID 0000.0001) ctrl-wet 6: no recs for i =     3           1
(PID.TID 0000.0001) ctrl-wet 6: no recs for i =     4           1
(PID.TID 0000.0001) ctrl-wet 6: no recs for i =     5           1
(PID.TID 0000.0001) ctrl-wet 6: no recs for i =     6           1
(PID.TID 0000.0001) ctrl-wet 6: no recs for i =     7           0
(PID.TID 0000.0001) ctrl-wet 6: no recs for i =     8           0
(PID.TID 0000.0001) ctrl-wet 6: no recs for i =     9           0
(PID.TID 0000.0001) ctrl-wet 6: no recs for i =    10           0
(PID.TID 0000.0001) ctrl-wet 6: no recs for i =    11           0
(PID.TID 0000.0001) ctrl-wet 6: no recs for i =    12           0
(PID.TID 0000.0001) ctrl-wet 6: no recs for i =    13           0
(PID.TID 0000.0001) ctrl-wet 6: no recs for i =    14           0
(PID.TID 0000.0001) ctrl-wet 6: no recs for i =    15           1
(PID.TID 0000.0001) ctrl-wet 6: no recs for i =    16           0
(PID.TID 0000.0001) ctrl-wet 6: no recs for i =    17           1
(PID.TID 0000.0001) ctrl-wet 6: no recs for i =    18           0
(PID.TID 0000.0001) ctrl-wet 6: no recs for i =    19           0
(PID.TID 0000.0001) ctrl-wet 6: no recs for i =    20           0
(PID.TID 0000.0001) ctrl-wet 6: no recs for i =    21           0
(PID.TID 0000.0001) ctrl-wet 6: no recs for i =    22           0
(PID.TID 0000.0001) ctrl-wet 6: no recs for i =    23           0
(PID.TID 0000.0001) ctrl-wet 6: no recs for i =    24           0
(PID.TID 0000.0001) ctrl-wet 6: no recs for i =    25           0
(PID.TID 0000.0001) ctrl-wet 6: no recs for i =    26           0
(PID.TID 0000.0001) ctrl-wet 6: no recs for i =    27           0
(PID.TID 0000.0001) ctrl-wet 6: no recs for i =    28           0
(PID.TID 0000.0001) ctrl-wet 6: no recs for i =    29           0
(PID.TID 0000.0001) ctrl-wet 6: no recs for i =    30           0
(PID.TID 0000.0001) ctrl-wet 6: no recs for i =    31           0
(PID.TID 0000.0001) ctrl-wet 6: no recs for i =    32           0
(PID.TID 0000.0001) ctrl-wet 6: no recs for i =    33           0
(PID.TID 0000.0001) ctrl-wet 6: no recs for i =    34           0
(PID.TID 0000.0001) ctrl-wet 6: no recs for i =    35           0
(PID.TID 0000.0001) ctrl-wet 6: no recs for i =    36           0
(PID.TID 0000.0001) ctrl-wet 6: no recs for i =    37           0
(PID.TID 0000.0001) ctrl-wet 6: no recs for i =    38           0
(PID.TID 0000.0001) ctrl-wet 6: no recs for i =    39           0
(PID.TID 0000.0001) ctrl-wet 6: no recs for i =    40           0
(PID.TID 0000.0001) ctrl-wet 6: no recs for i =    41           0
(PID.TID 0000.0001) ctrl-wet 6: no recs for i =    42           0
(PID.TID 0000.0001) ctrl-wet 6: no recs for i =    43           0
(PID.TID 0000.0001) ctrl-wet 6: no recs for i =    44           0
(PID.TID 0000.0001) ctrl-wet 6: no recs for i =    45           0
(PID.TID 0000.0001) ctrl-wet 6: no recs for i =    46           0
(PID.TID 0000.0001) ctrl-wet 6: no recs for i =    47           0
(PID.TID 0000.0001) ctrl-wet 6: no recs for i =    48           0
(PID.TID 0000.0001) ctrl-wet 6: no recs for i =    49           0
(PID.TID 0000.0001) ctrl-wet 6: no recs for i =    50           0
(PID.TID 0000.0001) ctrl-wet 6: no recs for i =    51           0
(PID.TID 0000.0001) ctrl-wet 6: no recs for i =    52           0
(PID.TID 0000.0001) ctrl-wet 6: no recs for i =    53           0
(PID.TID 0000.0001) ctrl-wet 6: no recs for i =    54           0
(PID.TID 0000.0001) ctrl-wet 6: no recs for i =    55           0
(PID.TID 0000.0001) ctrl-wet 6: no recs for i =    56           0
(PID.TID 0000.0001) ctrl-wet 6: no recs for i =    57           0
(PID.TID 0000.0001) ctrl-wet 6: no recs for i =    58           0
(PID.TID 0000.0001) ctrl-wet 6: no recs for i =    59           0
(PID.TID 0000.0001) ctrl-wet 6: no recs for i =    60           0
(PID.TID 0000.0001) ctrl-wet 7: flux         37369
(PID.TID 0000.0001) ctrl-wet 8: atmos        32318
(PID.TID 0000.0001) ctrl-wet -------------------------------------------------
(PID.TID 0000.0001) ctrl-wet 13: global nvarlength for Nr =   15      240064
(PID.TID 0000.0001) ctrl-wet -------------------------------------------------
(PID.TID 0000.0001) ctrl-wet 14: global nWet C/S/W/V k=    1        4447        4201        4277           0
(PID.TID 0000.0001) ctrl-wet 14: global nWet C/S/W/V k=    2        4399        4158        4229           0
(PID.TID 0000.0001) ctrl-wet 14: global nWet C/S/W/V k=    3        4352        4111        4178           0
(PID.TID 0000.0001) ctrl-wet 14: global nWet C/S/W/V k=    4        4282        4046        4108           0
(PID.TID 0000.0001) ctrl-wet 14: global nWet C/S/W/V k=    5        4220        3992        4050           0
(PID.TID 0000.0001) ctrl-wet 14: global nWet C/S/W/V k=    6        4125        3897        3960           0
(PID.TID 0000.0001) ctrl-wet 14: global nWet C/S/W/V k=    7        4075        3846        3907           0
(PID.TID 0000.0001) ctrl-wet 14: global nWet C/S/W/V k=    8        4021        3785        3851           0
(PID.TID 0000.0001) ctrl-wet 14: global nWet C/S/W/V k=    9        3970        3730        3801           0
(PID.TID 0000.0001) ctrl-wet 14: global nWet C/S/W/V k=   10        3878        3629        3692           0
(PID.TID 0000.0001) ctrl-wet 14: global nWet C/S/W/V k=   11        3763        3505        3562           0
(PID.TID 0000.0001) ctrl-wet 14: global nWet C/S/W/V k=   12        3557        3269        3332           0
(PID.TID 0000.0001) ctrl-wet 14: global nWet C/S/W/V k=   13        3091        2747        2809           0
(PID.TID 0000.0001) ctrl-wet 14: global nWet C/S/W/V k=   14        2428        2071        2146           0
(PID.TID 0000.0001) ctrl-wet 14: global nWet C/S/W/V k=   15        1065         813         874           0
(PID.TID 0000.0001) ctrl-wet -------------------------------------------------
(PID.TID 0000.0001) ctrl-wet -------------------------------------------------
(PID.TID 0000.0001) ctrl-wet -------------------------------------------------
(PID.TID 0000.0001) ctrl_init: no. of control variables:            8
(PID.TID 0000.0001) ctrl_init: control vector length:          240064
 QQ load dic parameters, initial fixed
(PID.TID 0000.0001) 
(PID.TID 0000.0001) // ===================================
(PID.TID 0000.0001) //  DIC_INIT_FIXED parameters :
(PID.TID 0000.0001) nlev = /* Number of level over which Bio act is computed */
(PID.TID 0000.0001)                      15
(PID.TID 0000.0001)     ;
(PID.TID 0000.0001) %MON fCori_max                    =   1.4579854531444E-04
(PID.TID 0000.0001) %MON fCori_min                    =  -1.4579854531444E-04
(PID.TID 0000.0001) %MON fCori_mean                   =   2.3039296165317E-19
(PID.TID 0000.0001) %MON fCori_sd                     =   1.0312619976228E-04
(PID.TID 0000.0001) %MON fCoriG_max                   =   1.4566679669714E-04
(PID.TID 0000.0001) %MON fCoriG_min                   =  -1.4584247033981E-04
(PID.TID 0000.0001) %MON fCoriG_mean                  =  -2.2787885990593E-06
(PID.TID 0000.0001) %MON fCoriG_sd                    =   1.0310101939326E-04
(PID.TID 0000.0001) %MON fCoriCos_max                 =   1.4579854531444E-04
(PID.TID 0000.0001) %MON fCoriCos_min                 =   3.5791533929553E-06
(PID.TID 0000.0001) %MON fCoriCos_mean                =   9.2855522572229E-05
(PID.TID 0000.0001) %MON fCoriCos_sd                  =   4.4864964117307E-05
(PID.TID 0000.0001) INI_CG2D: CG2D normalisation factor =  7.0372759228205380E-05
(PID.TID 0000.0001) 
(PID.TID 0000.0001) // =======================================================
(PID.TID 0000.0001) // Model configuration
(PID.TID 0000.0001) // =======================================================
(PID.TID 0000.0001) //
(PID.TID 0000.0001) // "Physical" paramters ( PARM01 in namelist )
(PID.TID 0000.0001) //
(PID.TID 0000.0001) buoyancyRelation = /* Type of relation to get Buoyancy */
(PID.TID 0000.0001)               'OCEANIC'
(PID.TID 0000.0001)     ;
(PID.TID 0000.0001) fluidIsAir   =  /* fluid major constituent is Air */
(PID.TID 0000.0001)                   F
(PID.TID 0000.0001)     ;
(PID.TID 0000.0001) fluidIsWater =  /* fluid major constituent is Water */
(PID.TID 0000.0001)                   T
(PID.TID 0000.0001)     ;
(PID.TID 0000.0001) usingPCoords =  /* use p (or p*) vertical coordinate */
(PID.TID 0000.0001)                   F
(PID.TID 0000.0001)     ;
(PID.TID 0000.0001) usingZCoords =  /* use z (or z*) vertical coordinate */
(PID.TID 0000.0001)                   T
(PID.TID 0000.0001)     ;
(PID.TID 0000.0001) tRef =   /* Reference temperature profile ( oC or K ) */
(PID.TID 0000.0001)    15 @  2.000000000000000E+01              /* K =  1: 15 */
(PID.TID 0000.0001)     ;
(PID.TID 0000.0001) sRef =   /* Reference salinity profile ( psu ) */
(PID.TID 0000.0001)    15 @  3.500000000000000E+01              /* K =  1: 15 */
(PID.TID 0000.0001)     ;
(PID.TID 0000.0001) viscAh  =   /* Lateral eddy viscosity ( m^2/s ) */
(PID.TID 0000.0001)                 2.000000000000000E+05
(PID.TID 0000.0001)     ;
(PID.TID 0000.0001) viscAhMax = /* Maximum lateral eddy viscosity ( m^2/s ) */
(PID.TID 0000.0001)                 1.000000000000000E+21
(PID.TID 0000.0001)     ;
(PID.TID 0000.0001) viscAhGrid = /* Grid dependent lateral eddy viscosity ( non-dim. ) */
(PID.TID 0000.0001)                 0.000000000000000E+00
(PID.TID 0000.0001)     ;
(PID.TID 0000.0001) useFullLeith = /* Use Full Form of Leith Viscosity on/off flag*/
(PID.TID 0000.0001)                   F
(PID.TID 0000.0001)     ;
(PID.TID 0000.0001) useStrainTensionVisc= /* Use StrainTension Form of Viscous Operator flag*/
(PID.TID 0000.0001)                   F
(PID.TID 0000.0001)     ;
(PID.TID 0000.0001) useAreaViscLength = /* Use area for visc length instead of geom. mean*/
(PID.TID 0000.0001)                   F
(PID.TID 0000.0001)     ;
(PID.TID 0000.0001) viscC2leith = /* Leith harmonic visc. factor (on grad(vort),non-dim.) */
(PID.TID 0000.0001)                 0.000000000000000E+00
(PID.TID 0000.0001)     ;
(PID.TID 0000.0001) viscC2leithD = /* Leith harmonic viscosity factor (on grad(div),non-dim.)*/
(PID.TID 0000.0001)                 0.000000000000000E+00
(PID.TID 0000.0001)     ;
(PID.TID 0000.0001) viscC2smag = /* Smagorinsky harmonic viscosity factor (non-dim.) */
(PID.TID 0000.0001)                 0.000000000000000E+00
(PID.TID 0000.0001)     ;
(PID.TID 0000.0001) viscA4  =   /* Lateral biharmonic viscosity ( m^4/s ) */
(PID.TID 0000.0001)                 0.000000000000000E+00
(PID.TID 0000.0001)     ;
(PID.TID 0000.0001) viscA4Max = /* Maximum biharmonic viscosity ( m^2/s ) */
(PID.TID 0000.0001)                 1.000000000000000E+21
(PID.TID 0000.0001)     ;
(PID.TID 0000.0001) viscA4Grid = /* Grid dependent biharmonic viscosity ( non-dim. ) */
(PID.TID 0000.0001)                 0.000000000000000E+00
(PID.TID 0000.0001)     ;
(PID.TID 0000.0001) viscC4leith = /* Leith biharm viscosity factor (on grad(vort), non-dim.)*/
(PID.TID 0000.0001)                 0.000000000000000E+00
(PID.TID 0000.0001)     ;
(PID.TID 0000.0001) viscC4leithD = /* Leith biharm viscosity factor (on grad(div), non-dim.) */
(PID.TID 0000.0001)                 0.000000000000000E+00
(PID.TID 0000.0001)     ;
(PID.TID 0000.0001) viscC4Smag = /* Smagorinsky biharm viscosity factor (non-dim) */
(PID.TID 0000.0001)                 0.000000000000000E+00
(PID.TID 0000.0001)     ;
(PID.TID 0000.0001) no_slip_sides =  /* Viscous BCs: No-slip sides */
(PID.TID 0000.0001)                   T
(PID.TID 0000.0001)     ;
(PID.TID 0000.0001) sideDragFactor = /* side-drag scaling factor (non-dim) */
(PID.TID 0000.0001)                 2.000000000000000E+00
(PID.TID 0000.0001)     ;
(PID.TID 0000.0001) viscArNr = /* vertical profile of vertical viscosity ( m^2/s )*/
(PID.TID 0000.0001)    15 @  1.000000000000000E-03              /* K =  1: 15 */
(PID.TID 0000.0001)     ;
(PID.TID 0000.0001) no_slip_bottom =  /* Viscous BCs: No-slip bottom */
(PID.TID 0000.0001)                   T
(PID.TID 0000.0001)     ;
(PID.TID 0000.0001) bottomDragLinear = /* linear bottom-drag coefficient ( m/s ) */
(PID.TID 0000.0001)                 0.000000000000000E+00
(PID.TID 0000.0001)     ;
(PID.TID 0000.0001) bottomDragQuadratic = /* quadratic bottom-drag coefficient (-) */
(PID.TID 0000.0001)                 0.000000000000000E+00
(PID.TID 0000.0001)     ;
(PID.TID 0000.0001) diffKhT =   /* Laplacian diffusion of heat laterally ( m^2/s ) */
(PID.TID 0000.0001)                 0.000000000000000E+00
(PID.TID 0000.0001)     ;
(PID.TID 0000.0001) diffK4T =   /* Biharmonic diffusion of heat laterally ( m^4/s ) */
(PID.TID 0000.0001)                 0.000000000000000E+00
(PID.TID 0000.0001)     ;
(PID.TID 0000.0001) diffKhS =   /* Laplacian diffusion of salt laterally ( m^2/s ) */
(PID.TID 0000.0001)                 0.000000000000000E+00
(PID.TID 0000.0001)     ;
(PID.TID 0000.0001) diffK4S =   /* Biharmonic diffusion of salt laterally ( m^4/s ) */
(PID.TID 0000.0001)                 0.000000000000000E+00
(PID.TID 0000.0001)     ;
(PID.TID 0000.0001) diffKrNrT = /* vertical profile of vertical diffusion of Temp ( m^2/s )*/
(PID.TID 0000.0001)    15 @  0.000000000000000E+00              /* K =  1: 15 */
(PID.TID 0000.0001)     ;
(PID.TID 0000.0001) diffKrNrS = /* vertical profile of vertical diffusion of Salt ( m^2/s )*/
(PID.TID 0000.0001)    15 @  0.000000000000000E+00              /* K =  1: 15 */
(PID.TID 0000.0001)     ;
(PID.TID 0000.0001) diffKrBL79surf = /* Surface diffusion for Bryan and Lewis 79 ( m^2/s ) */
(PID.TID 0000.0001)                 3.000000000000000E-05
(PID.TID 0000.0001)     ;
(PID.TID 0000.0001) diffKrBL79deep = /* Deep diffusion for Bryan and Lewis 1979 ( m^2/s ) */
(PID.TID 0000.0001)                 1.300000000000000E-04
(PID.TID 0000.0001)     ;
(PID.TID 0000.0001) diffKrBL79scl = /* Depth scale for Bryan and Lewis 1979 ( m ) */
(PID.TID 0000.0001)                 1.500000000000000E+02
(PID.TID 0000.0001)     ;
(PID.TID 0000.0001) diffKrBL79Ho = /* Turning depth for Bryan and Lewis 1979 ( m ) */
(PID.TID 0000.0001)                -2.000000000000000E+03
(PID.TID 0000.0001)     ;
(PID.TID 0000.0001) ivdc_kappa = /* Implicit Vertical Diffusivity for Convection ( m^2/s) */
(PID.TID 0000.0001)                 1.000000000000000E+02
(PID.TID 0000.0001)     ;
(PID.TID 0000.0001) hMixCriteria=  /* Criteria for mixed-layer diagnostic */
(PID.TID 0000.0001)                -8.000000000000000E-01
(PID.TID 0000.0001)     ;
(PID.TID 0000.0001) dRhoSmall =  /* Parameter for mixed-layer diagnostic */
(PID.TID 0000.0001)                 1.000000000000000E-06
(PID.TID 0000.0001)     ;
(PID.TID 0000.0001) hMixSmooth=  /* Smoothing parameter for mixed-layer diagnostic */
(PID.TID 0000.0001)                 0.000000000000000E+00
(PID.TID 0000.0001)     ;
(PID.TID 0000.0001) eosType =  /* Type of Equation of State */
(PID.TID 0000.0001)               'JMD95Z'
(PID.TID 0000.0001)     ;
(PID.TID 0000.0001) celsius2K = /* 0 degree Celsius converted to Kelvin ( K ) */
(PID.TID 0000.0001)                 2.731500000000000E+02
(PID.TID 0000.0001)     ;
(PID.TID 0000.0001) rhoConst  = /* Reference density (Boussinesq)  ( kg/m^3 ) */
(PID.TID 0000.0001)                 1.035000000000000E+03
(PID.TID 0000.0001)     ;
(PID.TID 0000.0001) rhoFacC = /* normalized Reference density @ cell-Center (-) */
(PID.TID 0000.0001)    15 @  1.000000000000000E+00              /* K =  1: 15 */
(PID.TID 0000.0001)     ;
(PID.TID 0000.0001) rhoFacF = /* normalized Reference density @ W-Interface (-) */
(PID.TID 0000.0001)    16 @  1.000000000000000E+00              /* K =  1: 16 */
(PID.TID 0000.0001)     ;
(PID.TID 0000.0001) rhoConstFresh = /* Fresh-water reference density ( kg/m^3 ) */
(PID.TID 0000.0001)                 1.000000000000000E+03
(PID.TID 0000.0001)     ;
(PID.TID 0000.0001) gravity =   /* Gravitational acceleration ( m/s^2 ) */
(PID.TID 0000.0001)                 9.810000000000000E+00
(PID.TID 0000.0001)     ;
(PID.TID 0000.0001) gBaro =   /* Barotropic gravity ( m/s^2 ) */
(PID.TID 0000.0001)                 9.810000000000000E+00
(PID.TID 0000.0001)     ;
(PID.TID 0000.0001) rotationPeriod =   /* Rotation Period ( s ) */
(PID.TID 0000.0001)                 8.616400000000000E+04
(PID.TID 0000.0001)     ;
(PID.TID 0000.0001) omega =   /* Angular velocity ( rad/s ) */
(PID.TID 0000.0001)                 7.292123516990375E-05
(PID.TID 0000.0001)     ;
(PID.TID 0000.0001) f0 =   /* Reference coriolis parameter ( 1/s ) */
(PID.TID 0000.0001)                 1.000000000000000E-04
(PID.TID 0000.0001)     ;
(PID.TID 0000.0001) beta =   /* Beta ( 1/(m.s) ) */
(PID.TID 0000.0001)                 9.999999999999999E-12
(PID.TID 0000.0001)     ;
(PID.TID 0000.0001) fPrime =   /* Second coriolis parameter ( 1/s ) */
(PID.TID 0000.0001)                 0.000000000000000E+00
(PID.TID 0000.0001)     ;
(PID.TID 0000.0001) rigidLid =   /* Rigid lid on/off flag */
(PID.TID 0000.0001)                   F
(PID.TID 0000.0001)     ;
(PID.TID 0000.0001) implicitFreeSurface =   /* Implicit free surface on/off flag */
(PID.TID 0000.0001)                   T
(PID.TID 0000.0001)     ;
(PID.TID 0000.0001) freeSurfFac =   /* Implicit free surface factor */
(PID.TID 0000.0001)                 1.000000000000000E+00
(PID.TID 0000.0001)     ;
(PID.TID 0000.0001) implicSurfPress =  /* Surface Pressure implicit factor (0-1)*/
(PID.TID 0000.0001)                 1.000000000000000E+00
(PID.TID 0000.0001)     ;
(PID.TID 0000.0001) implicDiv2Dflow =  /* Barot. Flow Div. implicit factor (0-1)*/
(PID.TID 0000.0001)                 1.000000000000000E+00
(PID.TID 0000.0001)     ;
(PID.TID 0000.0001) uniformLin_PhiSurf = /* use uniform Bo_surf on/off flag*/
(PID.TID 0000.0001)                   T
(PID.TID 0000.0001)     ;
(PID.TID 0000.0001) uniformFreeSurfLev = /* free-surface level-index is uniform */
(PID.TID 0000.0001)                   T
(PID.TID 0000.0001)     ;
(PID.TID 0000.0001) hFacMin =   /* minimum partial cell factor (hFac) */
(PID.TID 0000.0001)                 1.000000000000000E-01
(PID.TID 0000.0001)     ;
(PID.TID 0000.0001) hFacMinDr = /* minimum partial cell thickness ( m) */
(PID.TID 0000.0001)                 1.000000000000000E-01
(PID.TID 0000.0001)     ;
(PID.TID 0000.0001) exactConserv =  /* Exact Volume Conservation on/off flag*/
(PID.TID 0000.0001)                   F
(PID.TID 0000.0001)     ;
(PID.TID 0000.0001) linFSConserveTr = /* Tracer correction for Lin Free Surface on/off flag*/
(PID.TID 0000.0001)                   F
(PID.TID 0000.0001)     ;
(PID.TID 0000.0001) nonlinFreeSurf = /* Non-linear Free Surf. options (-1,0,1,2,3)*/
(PID.TID 0000.0001)                       0
(PID.TID 0000.0001)      -1,0= Off ; 1,2,3= On, 2=+rescale gU,gV, 3=+update cg2d solv.
(PID.TID 0000.0001)     ;
(PID.TID 0000.0001) hFacInf =   /* lower threshold for hFac (nonlinFreeSurf only)*/
(PID.TID 0000.0001)                 2.000000000000000E-01
(PID.TID 0000.0001)     ;
(PID.TID 0000.0001) hFacSup =   /* upper threshold for hFac (nonlinFreeSurf only)*/
(PID.TID 0000.0001)                 2.000000000000000E+00
(PID.TID 0000.0001)     ;
(PID.TID 0000.0001) select_rStar = /* r* Vertical coord. options (=0 r coord.; >0 uses r*)*/
(PID.TID 0000.0001)                       0
(PID.TID 0000.0001)     ;
(PID.TID 0000.0001) useRealFreshWaterFlux = /* Real Fresh Water Flux on/off flag*/
(PID.TID 0000.0001)                   F
(PID.TID 0000.0001)     ;
(PID.TID 0000.0001) temp_EvPrRn = /* Temp. of Evap/Prec/R (UNSET=use local T)(oC)*/
(PID.TID 0000.0001)                 1.234567000000000E+05
(PID.TID 0000.0001)     ;
(PID.TID 0000.0001) salt_EvPrRn = /* Salin. of Evap/Prec/R (UNSET=use local S)(psu)*/
(PID.TID 0000.0001)                 0.000000000000000E+00
(PID.TID 0000.0001)     ;
(PID.TID 0000.0001) selectAddFluid = /* option for mass source/sink of fluid (=0: off) */
(PID.TID 0000.0001)                       0
(PID.TID 0000.0001)     ;
(PID.TID 0000.0001) temp_addMass = /* Temp. of addMass array (UNSET=use local T)(oC)*/
(PID.TID 0000.0001)                 1.234567000000000E+05
(PID.TID 0000.0001)     ;
(PID.TID 0000.0001) salt_addMass = /* Salin. of addMass array (UNSET=use local S)(psu)*/
(PID.TID 0000.0001)                 0.000000000000000E+00
(PID.TID 0000.0001)     ;
(PID.TID 0000.0001) convertFW2Salt = /* convert F.W. Flux to Salt Flux (-1=use local S)(psu)*/
(PID.TID 0000.0001)                 3.500000000000000E+01
(PID.TID 0000.0001)     ;
(PID.TID 0000.0001) use3Dsolver = /* use 3-D pressure solver on/off flag */
(PID.TID 0000.0001)                   F
(PID.TID 0000.0001)     ;
(PID.TID 0000.0001) nonHydrostatic =  /* Non-Hydrostatic on/off flag */
(PID.TID 0000.0001)                   F
(PID.TID 0000.0001)     ;
(PID.TID 0000.0001) nh_Am2 = /* Non-Hydrostatic terms scaling factor */
(PID.TID 0000.0001)                 1.000000000000000E+00
(PID.TID 0000.0001)     ;
(PID.TID 0000.0001) implicitNHPress = /* Non-Hyd Pressure implicit factor (0-1)*/
(PID.TID 0000.0001)                 1.000000000000000E+00
(PID.TID 0000.0001)     ;
(PID.TID 0000.0001) selectNHfreeSurf = /* Non-Hyd (free-)Surface option */
(PID.TID 0000.0001)                       0
(PID.TID 0000.0001)     ;
(PID.TID 0000.0001) quasiHydrostatic = /* Quasi-Hydrostatic on/off flag */
(PID.TID 0000.0001)                   F
(PID.TID 0000.0001)     ;
(PID.TID 0000.0001) calc_wVelocity = /* vertical velocity calculation on/off flag */
(PID.TID 0000.0001)                   T
(PID.TID 0000.0001)     ;
(PID.TID 0000.0001) momStepping =  /* Momentum equation on/off flag */
(PID.TID 0000.0001)                   T
(PID.TID 0000.0001)     ;
(PID.TID 0000.0001) vectorInvariantMomentum= /* Vector-Invariant Momentum on/off */
(PID.TID 0000.0001)                   F
(PID.TID 0000.0001)     ;
(PID.TID 0000.0001) momAdvection =  /* Momentum advection on/off flag */
(PID.TID 0000.0001)                   T
(PID.TID 0000.0001)     ;
(PID.TID 0000.0001) momViscosity =  /* Momentum viscosity on/off flag */
(PID.TID 0000.0001)                   T
(PID.TID 0000.0001)     ;
(PID.TID 0000.0001) momImplVertAdv= /* Momentum implicit vert. advection on/off*/
(PID.TID 0000.0001)                   F
(PID.TID 0000.0001)     ;
(PID.TID 0000.0001) implicitViscosity = /* Implicit viscosity on/off flag */
(PID.TID 0000.0001)                   T
(PID.TID 0000.0001)     ;
(PID.TID 0000.0001) metricTerms =  /* metric-Terms on/off flag */
(PID.TID 0000.0001)                   T
(PID.TID 0000.0001)     ;
(PID.TID 0000.0001) useNHMTerms = /* Non-Hydrostatic Metric-Terms on/off */
(PID.TID 0000.0001)                   F
(PID.TID 0000.0001)     ;
(PID.TID 0000.0001) selectCoriMap = /* Coriolis Map options (0,1,2,3)*/
(PID.TID 0000.0001)                       2
(PID.TID 0000.0001)     0= f-Plane ; 1= Beta-Plane ; 2= Spherical ; 3= read from file
(PID.TID 0000.0001)     ;
(PID.TID 0000.0001) use3dCoriolis = /* 3-D Coriolis on/off flag */
(PID.TID 0000.0001)                   F
(PID.TID 0000.0001)     ;
(PID.TID 0000.0001) useCoriolis =  /* Coriolis on/off flag */
(PID.TID 0000.0001)                   T
(PID.TID 0000.0001)     ;
(PID.TID 0000.0001) useCDscheme =  /* CD scheme on/off flag */
(PID.TID 0000.0001)                   T
(PID.TID 0000.0001)     ;
(PID.TID 0000.0001) useEnergyConservingCoriolis= /* Flx-Form Coriolis scheme flag */
(PID.TID 0000.0001)                   F
(PID.TID 0000.0001)     ;
(PID.TID 0000.0001) useJamartWetPoints= /* Coriolis WetPoints method flag */
(PID.TID 0000.0001)                   F
(PID.TID 0000.0001)     ;
(PID.TID 0000.0001) useJamartMomAdv= /* V.I Non-linear terms Jamart flag */
(PID.TID 0000.0001)                   F
(PID.TID 0000.0001)     ;
(PID.TID 0000.0001) useAbsVorticity= /* V.I Works with f+zeta in Coriolis */
(PID.TID 0000.0001)                   F
(PID.TID 0000.0001)     ;
(PID.TID 0000.0001) selectVortScheme= /* V.I Scheme selector for Vorticity-Term */
(PID.TID 0000.0001)               123456789
(PID.TID 0000.0001)    = 0 : enstrophy (Shallow-Water Eq.) conserving scheme by Sadourny, JAS 75
(PID.TID 0000.0001)    = 1 : same as 0 with modified hFac
(PID.TID 0000.0001)    = 2 : energy conserving scheme (used by Sadourny in JAS 75 paper)
(PID.TID 0000.0001)    = 3 : energy (general) and enstrophy (2D, nonDiv.) conserving scheme
(PID.TID 0000.0001)          from Sadourny (Burridge & Haseler, ECMWF Rep.4, 1977)
(PID.TID 0000.0001)     ;
(PID.TID 0000.0001) upwindVorticity= /* V.I Upwind bias vorticity flag */
(PID.TID 0000.0001)                   F
(PID.TID 0000.0001)     ;
(PID.TID 0000.0001) highOrderVorticity= /* V.I High order vort. advect. flag */
(PID.TID 0000.0001)                   F
(PID.TID 0000.0001)     ;
(PID.TID 0000.0001) upwindShear= /* V.I Upwind vertical Shear advection flag */
(PID.TID 0000.0001)                   F
(PID.TID 0000.0001)     ;
(PID.TID 0000.0001) selectKEscheme= /* V.I Kinetic Energy scheme selector */
(PID.TID 0000.0001)                       0
(PID.TID 0000.0001)     ;
(PID.TID 0000.0001) momForcing =  /* Momentum forcing on/off flag */
(PID.TID 0000.0001)                   T
(PID.TID 0000.0001)     ;
(PID.TID 0000.0001) momPressureForcing =  /* Momentum pressure term on/off flag */
(PID.TID 0000.0001)                   T
(PID.TID 0000.0001)     ;
(PID.TID 0000.0001) implicitIntGravWave= /* Implicit Internal Gravity Wave flag */
(PID.TID 0000.0001)                   F
(PID.TID 0000.0001)     ;
(PID.TID 0000.0001) staggerTimeStep =    /* Stagger time stepping on/off flag */
(PID.TID 0000.0001)                   F
(PID.TID 0000.0001)     ;
(PID.TID 0000.0001) doResetHFactors = /* reset thickness factors @ each time-step */
(PID.TID 0000.0001)                   F
(PID.TID 0000.0001)     ;
(PID.TID 0000.0001) multiDimAdvection =  /* enable/disable Multi-Dim Advection */
(PID.TID 0000.0001)                   T
(PID.TID 0000.0001)     ;
(PID.TID 0000.0001) useMultiDimAdvec =   /* Multi-Dim Advection is/is-not used */
(PID.TID 0000.0001)                   T
(PID.TID 0000.0001)     ;
(PID.TID 0000.0001) implicitDiffusion = /* Implicit Diffusion on/off flag */
(PID.TID 0000.0001)                   T
(PID.TID 0000.0001)     ;
(PID.TID 0000.0001) tempStepping =  /* Temperature equation on/off flag */
(PID.TID 0000.0001)                   T
(PID.TID 0000.0001)     ;
(PID.TID 0000.0001) tempAdvection = /* Temperature advection on/off flag */
(PID.TID 0000.0001)                   T
(PID.TID 0000.0001)     ;
(PID.TID 0000.0001) tempImplVertAdv = /* Temp. implicit vert. advection on/off */
(PID.TID 0000.0001)                   F
(PID.TID 0000.0001)     ;
(PID.TID 0000.0001) tempForcing  =  /* Temperature forcing on/off flag */
(PID.TID 0000.0001)                   T
(PID.TID 0000.0001)     ;
(PID.TID 0000.0001) doThetaClimRelax = /* apply SST relaxation on/off flag */
(PID.TID 0000.0001)                   T
(PID.TID 0000.0001)     ;
(PID.TID 0000.0001) tempIsActiveTr = /* Temp. is a dynamically Active Tracer */
(PID.TID 0000.0001)                   T
(PID.TID 0000.0001)     ;
(PID.TID 0000.0001) saltStepping =  /* Salinity equation on/off flag */
(PID.TID 0000.0001)                   T
(PID.TID 0000.0001)     ;
(PID.TID 0000.0001) saltAdvection = /* Salinity advection on/off flag */
(PID.TID 0000.0001)                   T
(PID.TID 0000.0001)     ;
(PID.TID 0000.0001) saltImplVertAdv = /* Sali. implicit vert. advection on/off */
(PID.TID 0000.0001)                   F
(PID.TID 0000.0001)     ;
(PID.TID 0000.0001) saltForcing  =  /* Salinity forcing on/off flag */
(PID.TID 0000.0001)                   T
(PID.TID 0000.0001)     ;
(PID.TID 0000.0001) doSaltClimRelax = /* apply SSS relaxation on/off flag */
(PID.TID 0000.0001)                   T
(PID.TID 0000.0001)     ;
(PID.TID 0000.0001) saltIsActiveTr = /* Salt  is a dynamically Active Tracer */
(PID.TID 0000.0001)                   T
(PID.TID 0000.0001)     ;
(PID.TID 0000.0001)  readBinaryPrec = /* Precision used for reading binary files */
(PID.TID 0000.0001)                      32
(PID.TID 0000.0001)     ;
(PID.TID 0000.0001) writeBinaryPrec = /* Precision used for writing binary files */
(PID.TID 0000.0001)                      32
(PID.TID 0000.0001)     ;
(PID.TID 0000.0001)  globalFiles = /* write "global" (=not per tile) files */
(PID.TID 0000.0001)                   F
(PID.TID 0000.0001)     ;
(PID.TID 0000.0001)  useSingleCpuIO = /* only master MPI process does I/O */
(PID.TID 0000.0001)                   F
(PID.TID 0000.0001)     ;
(PID.TID 0000.0001) /* debLev[*]  : level of debug & auxiliary message printing */
(PID.TID 0000.0001) debLevZero =  0 ; /* level of disabled aux. msg printing */
(PID.TID 0000.0001)    debLevA =  1 ; /* level of minimum  aux. msg printing */
(PID.TID 0000.0001)    debLevB =  2 ; /* level of low aux. print (report read-file opening)*/
(PID.TID 0000.0001)    debLevC =  3 ; /* level of moderate debug prt (most pkgs debug msg) */
(PID.TID 0000.0001)    debLevD =  4 ; /* level of enhanced debug prt (add DEBUG_STATS prt) */
(PID.TID 0000.0001)    debLevE =  5 ; /* level of extensive debug printing */
(PID.TID 0000.0001) debugLevel =  /* select debug printing level */
(PID.TID 0000.0001)                       1
(PID.TID 0000.0001)     ;
(PID.TID 0000.0001) //
(PID.TID 0000.0001) // Elliptic solver(s) paramters ( PARM02 in namelist )
(PID.TID 0000.0001) //
(PID.TID 0000.0001) cg2dMaxIters =   /* Upper limit on 2d con. grad iterations  */
(PID.TID 0000.0001)                    1000
(PID.TID 0000.0001)     ;
(PID.TID 0000.0001) cg2dChkResFreq =   /* 2d con. grad convergence test frequency */
(PID.TID 0000.0001)                       1
(PID.TID 0000.0001)     ;
(PID.TID 0000.0001) cg2dUseMinResSol= /* use cg2d last-iter(=0) / min-resid.(=1) solution */
(PID.TID 0000.0001)                       0
(PID.TID 0000.0001)     ;
(PID.TID 0000.0001) cg2dTargetResidual =   /* 2d con. grad target residual  */
(PID.TID 0000.0001)                 1.000000000000000E-13
(PID.TID 0000.0001)     ;
(PID.TID 0000.0001) cg2dTargetResWunit =   /* CG2d target residual [W units] */
(PID.TID 0000.0001)                -1.000000000000000E+00
(PID.TID 0000.0001)     ;
(PID.TID 0000.0001) cg2dPreCondFreq =   /* Freq. for updating cg2d preconditioner */
(PID.TID 0000.0001)                       1
(PID.TID 0000.0001)     ;
(PID.TID 0000.0001) useSRCGSolver =  /* use single reduction CG solver(s) */
(PID.TID 0000.0001)                   F
(PID.TID 0000.0001)     ;
(PID.TID 0000.0001) printResidualFreq = /* Freq. for printing CG residual */
(PID.TID 0000.0001)                       0
(PID.TID 0000.0001)     ;
(PID.TID 0000.0001) //
(PID.TID 0000.0001) // Time stepping paramters ( PARM03 in namelist )
(PID.TID 0000.0001) //
(PID.TID 0000.0001) deltaTMom =   /* Momentum equation timestep ( s ) */
(PID.TID 0000.0001)                 9.000000000000000E+02
(PID.TID 0000.0001)     ;
(PID.TID 0000.0001) deltaTFreeSurf = /* FreeSurface equation timestep ( s ) */
(PID.TID 0000.0001)                 9.000000000000000E+02
(PID.TID 0000.0001)     ;
(PID.TID 0000.0001) dTtracerLev =  /* Tracer equation timestep ( s ) */
(PID.TID 0000.0001)    15 @  4.320000000000000E+04              /* K =  1: 15 */
(PID.TID 0000.0001)     ;
(PID.TID 0000.0001) deltaTClock  =   /* Model clock timestep ( s ) */
(PID.TID 0000.0001)                 4.320000000000000E+04
(PID.TID 0000.0001)     ;
(PID.TID 0000.0001) cAdjFreq =   /* Convective adjustment interval ( s ) */
(PID.TID 0000.0001)                 0.000000000000000E+00
(PID.TID 0000.0001)     ;
(PID.TID 0000.0001) momForcingOutAB = /* =1: take Momentum Forcing out of Adams-Bash. stepping */
(PID.TID 0000.0001)                       0
(PID.TID 0000.0001)     ;
(PID.TID 0000.0001) tracForcingOutAB = /* =1: take T,S,pTr Forcing out of Adams-Bash. stepping */
(PID.TID 0000.0001)                       0
(PID.TID 0000.0001)     ;
(PID.TID 0000.0001) momDissip_In_AB = /* put Dissipation Tendency in Adams-Bash. stepping */
(PID.TID 0000.0001)                   T
(PID.TID 0000.0001)     ;
(PID.TID 0000.0001) doAB_onGtGs = /* apply AB on Tendencies (rather than on T,S)*/
(PID.TID 0000.0001)                   T
(PID.TID 0000.0001)     ;
(PID.TID 0000.0001) abEps =   /* Adams-Bashforth-2 stabilizing weight */
(PID.TID 0000.0001)                 1.000000000000000E-01
(PID.TID 0000.0001)     ;
(PID.TID 0000.0001) tauCD =   /* CD coupling time-scale ( s ) */
(PID.TID 0000.0001)                 3.214280000000000E+05
(PID.TID 0000.0001)     ;
(PID.TID 0000.0001) rCD =   /* Normalised CD coupling parameter */
(PID.TID 0000.0001)                 9.971999950222133E-01
(PID.TID 0000.0001)     ;
(PID.TID 0000.0001) epsAB_CD = /* AB-2 stabilizing weight for CD-scheme*/
(PID.TID 0000.0001)                 1.000000000000000E-01
(PID.TID 0000.0001)     ;
(PID.TID 0000.0001) pickupStrictlyMatch= /* stop if pickup do not strictly match */
(PID.TID 0000.0001)                   T
(PID.TID 0000.0001)     ;
(PID.TID 0000.0001) nIter0   =   /* Run starting timestep number */
(PID.TID 0000.0001)                 5184000
(PID.TID 0000.0001)     ;
(PID.TID 0000.0001) nTimeSteps = /* Number of timesteps */
(PID.TID 0000.0001)                       4
(PID.TID 0000.0001)     ;
(PID.TID 0000.0001) nEndIter =   /* Run ending timestep number */
(PID.TID 0000.0001)                 5184004
(PID.TID 0000.0001)     ;
(PID.TID 0000.0001) baseTime =   /* Model base time ( s ) */
(PID.TID 0000.0001)                 0.000000000000000E+00
(PID.TID 0000.0001)     ;
(PID.TID 0000.0001) startTime =  /* Run start time ( s ) */
(PID.TID 0000.0001)                 2.239488000000000E+11
(PID.TID 0000.0001)     ;
(PID.TID 0000.0001) endTime  =   /* Integration ending time ( s ) */
(PID.TID 0000.0001)                 2.239489728000000E+11
(PID.TID 0000.0001)     ;
(PID.TID 0000.0001) pChkPtFreq = /* Permanent restart/pickup file interval ( s ) */
(PID.TID 0000.0001)                 2.160000000000000E+05
(PID.TID 0000.0001)     ;
(PID.TID 0000.0001) chkPtFreq  = /* Rolling restart/pickup file interval ( s ) */
(PID.TID 0000.0001)                 2.160000000000000E+05
(PID.TID 0000.0001)     ;
(PID.TID 0000.0001) pickup_write_mdsio =   /* Model IO flag. */
(PID.TID 0000.0001)                   T
(PID.TID 0000.0001)     ;
(PID.TID 0000.0001) pickup_read_mdsio =   /* Model IO flag. */
(PID.TID 0000.0001)                   T
(PID.TID 0000.0001)     ;
(PID.TID 0000.0001) pickup_write_immed =   /* Model IO flag. */
(PID.TID 0000.0001)                   F
(PID.TID 0000.0001)     ;
(PID.TID 0000.0001) writePickupAtEnd =   /* Model IO flag. */
(PID.TID 0000.0001)                   T
(PID.TID 0000.0001)     ;
(PID.TID 0000.0001) dumpFreq =   /* Model state write out interval ( s ). */
(PID.TID 0000.0001)                 2.160000000000000E+05
(PID.TID 0000.0001)     ;
(PID.TID 0000.0001) dumpInitAndLast= /* write out Initial & Last iter. model state */
(PID.TID 0000.0001)                   T
(PID.TID 0000.0001)     ;
(PID.TID 0000.0001) snapshot_mdsio =   /* Model IO flag. */
(PID.TID 0000.0001)                   T
(PID.TID 0000.0001)     ;
(PID.TID 0000.0001) monitorFreq =   /* Monitor output interval ( s ). */
(PID.TID 0000.0001)                 1.000000000000000E+00
(PID.TID 0000.0001)     ;
(PID.TID 0000.0001) monitorSelect = /* select group of variables to monitor */
(PID.TID 0000.0001)                       3
(PID.TID 0000.0001)     ;
(PID.TID 0000.0001) monitor_stdio =   /* Model IO flag. */
(PID.TID 0000.0001)                   T
(PID.TID 0000.0001)     ;
(PID.TID 0000.0001) externForcingPeriod =   /* forcing period (s) */
(PID.TID 0000.0001)                 2.592000000000000E+06
(PID.TID 0000.0001)     ;
(PID.TID 0000.0001) externForcingCycle =   /* period of the cyle (s). */
(PID.TID 0000.0001)                 3.110400000000000E+07
(PID.TID 0000.0001)     ;
(PID.TID 0000.0001) tauThetaClimRelax =   /* relaxation time scale (s) */
(PID.TID 0000.0001)                 5.184000000000000E+06
(PID.TID 0000.0001)     ;
(PID.TID 0000.0001) tauSaltClimRelax =   /* relaxation time scale (s) */
(PID.TID 0000.0001)                 7.776000000000000E+06
(PID.TID 0000.0001)     ;
(PID.TID 0000.0001) latBandClimRelax =   /* max. Lat. where relaxation */
(PID.TID 0000.0001)                 1.800000000000000E+02
(PID.TID 0000.0001)     ;
(PID.TID 0000.0001) //
(PID.TID 0000.0001) // Gridding paramters ( PARM04 in namelist )
(PID.TID 0000.0001) //
(PID.TID 0000.0001) usingCartesianGrid = /* Cartesian coordinates flag ( True/False ) */
(PID.TID 0000.0001)                   F
(PID.TID 0000.0001)     ;
(PID.TID 0000.0001) usingCylindricalGrid = /* Cylindrical coordinates flag ( True/False ) */
(PID.TID 0000.0001)                   F
(PID.TID 0000.0001)     ;
(PID.TID 0000.0001) usingSphericalPolarGrid = /* Spherical coordinates flag ( True/False ) */
(PID.TID 0000.0001)                   T
(PID.TID 0000.0001)     ;
(PID.TID 0000.0001) usingCurvilinearGrid = /* Curvilinear coordinates flag ( True/False ) */
(PID.TID 0000.0001)                   F
(PID.TID 0000.0001)     ;
(PID.TID 0000.0001) selectSigmaCoord = /* Hybrid-Sigma Vert. Coordinate option */
(PID.TID 0000.0001)                       0
(PID.TID 0000.0001)     ;
(PID.TID 0000.0001) Ro_SeaLevel = /* r(1) ( units of r ==  m ) */
(PID.TID 0000.0001)                 0.000000000000000E+00
(PID.TID 0000.0001)     ;
(PID.TID 0000.0001) rSigmaBnd = /* r/sigma transition ( units of r ==  m ) */
(PID.TID 0000.0001)                 1.234567000000000E+05
(PID.TID 0000.0001)     ;
(PID.TID 0000.0001) rkSign =   /* index orientation relative to vertical coordinate */
(PID.TID 0000.0001)                -1.000000000000000E+00
(PID.TID 0000.0001)     ;
(PID.TID 0000.0001) gravitySign = /* gravity orientation relative to vertical coordinate */
(PID.TID 0000.0001)                -1.000000000000000E+00
(PID.TID 0000.0001)     ;
(PID.TID 0000.0001) mass2rUnit = /* convert mass per unit area [kg/m2] to r-units [m] */
(PID.TID 0000.0001)                 9.661835748792270E-04
(PID.TID 0000.0001)     ;
(PID.TID 0000.0001) rUnit2mass = /* convert r-units [m] to mass per unit area [kg/m2] */
(PID.TID 0000.0001)                 1.035000000000000E+03
(PID.TID 0000.0001)     ;
(PID.TID 0000.0001) drC =   /* C spacing ( units of r ) */
(PID.TID 0000.0001)                 2.500000000000000E+01,      /* K =  1 */
(PID.TID 0000.0001)                 6.000000000000000E+01,      /* K =  2 */
(PID.TID 0000.0001)                 8.500000000000000E+01,      /* K =  3 */
(PID.TID 0000.0001)                 1.200000000000000E+02,      /* K =  4 */
(PID.TID 0000.0001)                 1.650000000000000E+02,      /* K =  5 */
(PID.TID 0000.0001)                 2.150000000000000E+02,      /* K =  6 */
(PID.TID 0000.0001)                 2.650000000000000E+02,      /* K =  7 */
(PID.TID 0000.0001)                 3.150000000000000E+02,      /* K =  8 */
(PID.TID 0000.0001)                 3.650000000000000E+02,      /* K =  9 */
(PID.TID 0000.0001)                 4.150000000000000E+02,      /* K = 10 */
(PID.TID 0000.0001)                 4.650000000000000E+02,      /* K = 11 */
(PID.TID 0000.0001)                 5.150000000000000E+02,      /* K = 12 */
(PID.TID 0000.0001)                 5.650000000000000E+02,      /* K = 13 */
(PID.TID 0000.0001)                 6.150000000000000E+02,      /* K = 14 */
(PID.TID 0000.0001)                 6.650000000000000E+02       /* K = 15 */
(PID.TID 0000.0001)     ;
(PID.TID 0000.0001) drF =   /* W spacing ( units of r ) */
(PID.TID 0000.0001)                 5.000000000000000E+01,      /* K =  1 */
(PID.TID 0000.0001)                 7.000000000000000E+01,      /* K =  2 */
(PID.TID 0000.0001)                 1.000000000000000E+02,      /* K =  3 */
(PID.TID 0000.0001)                 1.400000000000000E+02,      /* K =  4 */
(PID.TID 0000.0001)                 1.900000000000000E+02,      /* K =  5 */
(PID.TID 0000.0001)                 2.400000000000000E+02,      /* K =  6 */
(PID.TID 0000.0001)                 2.900000000000000E+02,      /* K =  7 */
(PID.TID 0000.0001)                 3.400000000000000E+02,      /* K =  8 */
(PID.TID 0000.0001)                 3.900000000000000E+02,      /* K =  9 */
(PID.TID 0000.0001)                 4.400000000000000E+02,      /* K = 10 */
(PID.TID 0000.0001)                 4.900000000000000E+02,      /* K = 11 */
(PID.TID 0000.0001)                 5.400000000000000E+02,      /* K = 12 */
(PID.TID 0000.0001)                 5.900000000000000E+02,      /* K = 13 */
(PID.TID 0000.0001)                 6.400000000000000E+02,      /* K = 14 */
(PID.TID 0000.0001)                 6.900000000000000E+02       /* K = 15 */
(PID.TID 0000.0001)     ;
(PID.TID 0000.0001) delX = /* U spacing ( m - cartesian, degrees - spherical ) */
(PID.TID 0000.0001)   128 @  2.812500000000000E+00              /* I =  1:128 */
(PID.TID 0000.0001)     ;
(PID.TID 0000.0001) delY = /* V spacing ( m - cartesian, degrees - spherical ) */
(PID.TID 0000.0001)    64 @  2.812500000000000E+00              /* J =  1: 64 */
(PID.TID 0000.0001)     ;
(PID.TID 0000.0001) xgOrigin = /* X-axis origin of West  edge (cartesian: m, lat-lon: deg) */
(PID.TID 0000.0001)                 0.000000000000000E+00
(PID.TID 0000.0001)     ;
(PID.TID 0000.0001) ygOrigin = /* Y-axis origin of South edge (cartesian: m, lat-lon: deg) */
(PID.TID 0000.0001)                -9.000000000000000E+01
(PID.TID 0000.0001)     ;
(PID.TID 0000.0001) rSphere =  /* Radius ( ignored - cartesian, m - spherical ) */
(PID.TID 0000.0001)                 6.370000000000000E+06
(PID.TID 0000.0001)     ;
(PID.TID 0000.0001) deepAtmosphere = /* Deep/Shallow Atmosphere flag (True/False) */
(PID.TID 0000.0001)                   F
(PID.TID 0000.0001)     ;
(PID.TID 0000.0001) xC =  /* xC(:,1,:,1) : P-point X coord ( deg. or m if cartesian) */
(PID.TID 0000.0001)                 1.406250000000000E+00,      /* I =  1 */
(PID.TID 0000.0001)                 4.218750000000000E+00,      /* I =  2 */
(PID.TID 0000.0001)                 7.031250000000000E+00,      /* I =  3 */
(PID.TID 0000.0001)      . . .
(PID.TID 0000.0001)                 8.296875000000000E+01,      /* I = 30 */
(PID.TID 0000.0001)                 8.578125000000000E+01,      /* I = 31 */
(PID.TID 0000.0001)                 8.859375000000000E+01,      /* I = 32 */
(PID.TID 0000.0001)                 9.140625000000000E+01,      /* I = 33 */
(PID.TID 0000.0001)                 9.421875000000000E+01,      /* I = 34 */
(PID.TID 0000.0001)                 9.703125000000000E+01,      /* I = 35 */
(PID.TID 0000.0001)      . . .
(PID.TID 0000.0001)                 1.729687500000000E+02,      /* I = 62 */
(PID.TID 0000.0001)                 1.757812500000000E+02,      /* I = 63 */
(PID.TID 0000.0001)                 1.785937500000000E+02,      /* I = 64 */
(PID.TID 0000.0001)                 1.814062500000000E+02,      /* I = 65 */
(PID.TID 0000.0001)                 1.842187500000000E+02,      /* I = 66 */
(PID.TID 0000.0001)                 1.870312500000000E+02,      /* I = 67 */
(PID.TID 0000.0001)      . . .
(PID.TID 0000.0001)                 2.629687500000000E+02,      /* I = 94 */
(PID.TID 0000.0001)                 2.657812500000000E+02,      /* I = 95 */
(PID.TID 0000.0001)                 2.685937500000000E+02,      /* I = 96 */
(PID.TID 0000.0001)                 2.714062500000000E+02,      /* I = 97 */
(PID.TID 0000.0001)                 2.742187500000000E+02,      /* I = 98 */
(PID.TID 0000.0001)                 2.770312500000000E+02,      /* I = 99 */
(PID.TID 0000.0001)      . . .
(PID.TID 0000.0001)                 3.529687500000000E+02,      /* I =126 */
(PID.TID 0000.0001)                 3.557812500000000E+02,      /* I =127 */
(PID.TID 0000.0001)                 3.585937500000000E+02       /* I =128 */
(PID.TID 0000.0001)     ;
(PID.TID 0000.0001) yC =  /* yC(1,:,1,:) : P-point Y coord ( deg. or m if cartesian) */
(PID.TID 0000.0001)                -8.859375000000000E+01,      /* J =  1 */
(PID.TID 0000.0001)                -8.578125000000000E+01,      /* J =  2 */
(PID.TID 0000.0001)                -8.296875000000000E+01,      /* J =  3 */
(PID.TID 0000.0001)                -8.015625000000000E+01,      /* J =  4 */
(PID.TID 0000.0001)                -7.734375000000000E+01,      /* J =  5 */
(PID.TID 0000.0001)                -7.453125000000000E+01,      /* J =  6 */
(PID.TID 0000.0001)                -7.171875000000000E+01,      /* J =  7 */
(PID.TID 0000.0001)                -6.890625000000000E+01,      /* J =  8 */
(PID.TID 0000.0001)                -6.609375000000000E+01,      /* J =  9 */
(PID.TID 0000.0001)                -6.328125000000000E+01,      /* J = 10 */
(PID.TID 0000.0001)                -6.046875000000000E+01,      /* J = 11 */
(PID.TID 0000.0001)                -5.765625000000000E+01,      /* J = 12 */
(PID.TID 0000.0001)                -5.484375000000000E+01,      /* J = 13 */
(PID.TID 0000.0001)                -5.203125000000000E+01,      /* J = 14 */
(PID.TID 0000.0001)                -4.921875000000000E+01,      /* J = 15 */
(PID.TID 0000.0001)                -4.640625000000000E+01,      /* J = 16 */
(PID.TID 0000.0001)                -4.359375000000000E+01,      /* J = 17 */
(PID.TID 0000.0001)                -4.078125000000000E+01,      /* J = 18 */
(PID.TID 0000.0001)                -3.796875000000000E+01,      /* J = 19 */
(PID.TID 0000.0001)                -3.515625000000000E+01,      /* J = 20 */
(PID.TID 0000.0001)                -3.234375000000000E+01,      /* J = 21 */
(PID.TID 0000.0001)                -2.953125000000000E+01,      /* J = 22 */
(PID.TID 0000.0001)                -2.671875000000000E+01,      /* J = 23 */
(PID.TID 0000.0001)                -2.390625000000000E+01,      /* J = 24 */
(PID.TID 0000.0001)                -2.109375000000000E+01,      /* J = 25 */
(PID.TID 0000.0001)                -1.828125000000000E+01,      /* J = 26 */
(PID.TID 0000.0001)                -1.546875000000000E+01,      /* J = 27 */
(PID.TID 0000.0001)                -1.265625000000000E+01,      /* J = 28 */
(PID.TID 0000.0001)                -9.843750000000000E+00,      /* J = 29 */
(PID.TID 0000.0001)                -7.031250000000000E+00,      /* J = 30 */
(PID.TID 0000.0001)                -4.218750000000000E+00,      /* J = 31 */
(PID.TID 0000.0001)                -1.406250000000000E+00,      /* J = 32 */
(PID.TID 0000.0001)                 1.406250000000000E+00,      /* J = 33 */
(PID.TID 0000.0001)                 4.218750000000000E+00,      /* J = 34 */
(PID.TID 0000.0001)                 7.031250000000000E+00,      /* J = 35 */
(PID.TID 0000.0001)                 9.843750000000000E+00,      /* J = 36 */
(PID.TID 0000.0001)                 1.265625000000000E+01,      /* J = 37 */
(PID.TID 0000.0001)                 1.546875000000000E+01,      /* J = 38 */
(PID.TID 0000.0001)                 1.828125000000000E+01,      /* J = 39 */
(PID.TID 0000.0001)                 2.109375000000000E+01,      /* J = 40 */
(PID.TID 0000.0001)                 2.390625000000000E+01,      /* J = 41 */
(PID.TID 0000.0001)                 2.671875000000000E+01,      /* J = 42 */
(PID.TID 0000.0001)                 2.953125000000000E+01,      /* J = 43 */
(PID.TID 0000.0001)                 3.234375000000000E+01,      /* J = 44 */
(PID.TID 0000.0001)                 3.515625000000000E+01,      /* J = 45 */
(PID.TID 0000.0001)                 3.796875000000000E+01,      /* J = 46 */
(PID.TID 0000.0001)                 4.078125000000000E+01,      /* J = 47 */
(PID.TID 0000.0001)                 4.359375000000000E+01,      /* J = 48 */
(PID.TID 0000.0001)                 4.640625000000000E+01,      /* J = 49 */
(PID.TID 0000.0001)                 4.921875000000000E+01,      /* J = 50 */
(PID.TID 0000.0001)                 5.203125000000000E+01,      /* J = 51 */
(PID.TID 0000.0001)                 5.484375000000000E+01,      /* J = 52 */
(PID.TID 0000.0001)                 5.765625000000000E+01,      /* J = 53 */
(PID.TID 0000.0001)                 6.046875000000000E+01,      /* J = 54 */
(PID.TID 0000.0001)                 6.328125000000000E+01,      /* J = 55 */
(PID.TID 0000.0001)                 6.609375000000000E+01,      /* J = 56 */
(PID.TID 0000.0001)                 6.890625000000000E+01,      /* J = 57 */
(PID.TID 0000.0001)                 7.171875000000000E+01,      /* J = 58 */
(PID.TID 0000.0001)                 7.453125000000000E+01,      /* J = 59 */
(PID.TID 0000.0001)                 7.734375000000000E+01,      /* J = 60 */
(PID.TID 0000.0001)                 8.015625000000000E+01,      /* J = 61 */
(PID.TID 0000.0001)                 8.296875000000000E+01,      /* J = 62 */
(PID.TID 0000.0001)                 8.578125000000000E+01,      /* J = 63 */
(PID.TID 0000.0001)                 8.859375000000000E+01       /* J = 64 */
(PID.TID 0000.0001)     ;
(PID.TID 0000.0001) rcoord = /* P-point R coordinate (  units of r ) */
(PID.TID 0000.0001)                -2.500000000000000E+01,      /* K =  1 */
(PID.TID 0000.0001)                -8.500000000000000E+01,      /* K =  2 */
(PID.TID 0000.0001)                -1.700000000000000E+02,      /* K =  3 */
(PID.TID 0000.0001)                -2.900000000000000E+02,      /* K =  4 */
(PID.TID 0000.0001)                -4.550000000000000E+02,      /* K =  5 */
(PID.TID 0000.0001)                -6.700000000000000E+02,      /* K =  6 */
(PID.TID 0000.0001)                -9.350000000000000E+02,      /* K =  7 */
(PID.TID 0000.0001)                -1.250000000000000E+03,      /* K =  8 */
(PID.TID 0000.0001)                -1.615000000000000E+03,      /* K =  9 */
(PID.TID 0000.0001)                -2.030000000000000E+03,      /* K = 10 */
(PID.TID 0000.0001)                -2.495000000000000E+03,      /* K = 11 */
(PID.TID 0000.0001)                -3.010000000000000E+03,      /* K = 12 */
(PID.TID 0000.0001)                -3.575000000000000E+03,      /* K = 13 */
(PID.TID 0000.0001)                -4.190000000000000E+03,      /* K = 14 */
(PID.TID 0000.0001)                -4.855000000000000E+03       /* K = 15 */
(PID.TID 0000.0001)     ;
(PID.TID 0000.0001) rF =   /* W-Interf. R coordinate (  units of r ) */
(PID.TID 0000.0001)                 0.000000000000000E+00,      /* K =  1 */
(PID.TID 0000.0001)                -5.000000000000000E+01,      /* K =  2 */
(PID.TID 0000.0001)                -1.200000000000000E+02,      /* K =  3 */
(PID.TID 0000.0001)                -2.200000000000000E+02,      /* K =  4 */
(PID.TID 0000.0001)                -3.600000000000000E+02,      /* K =  5 */
(PID.TID 0000.0001)                -5.500000000000000E+02,      /* K =  6 */
(PID.TID 0000.0001)                -7.900000000000000E+02,      /* K =  7 */
(PID.TID 0000.0001)                -1.080000000000000E+03,      /* K =  8 */
(PID.TID 0000.0001)                -1.420000000000000E+03,      /* K =  9 */
(PID.TID 0000.0001)                -1.810000000000000E+03,      /* K = 10 */
(PID.TID 0000.0001)                -2.250000000000000E+03,      /* K = 11 */
(PID.TID 0000.0001)                -2.740000000000000E+03,      /* K = 12 */
(PID.TID 0000.0001)                -3.280000000000000E+03,      /* K = 13 */
(PID.TID 0000.0001)                -3.870000000000000E+03,      /* K = 14 */
(PID.TID 0000.0001)                -4.510000000000000E+03,      /* K = 15 */
(PID.TID 0000.0001)                -5.200000000000000E+03       /* K = 16 */
(PID.TID 0000.0001)     ;
(PID.TID 0000.0001) deepFacC = /* deep-model grid factor @ cell-Center (-) */
(PID.TID 0000.0001)    15 @  1.000000000000000E+00              /* K =  1: 15 */
(PID.TID 0000.0001)     ;
(PID.TID 0000.0001) deepFacF = /* deep-model grid factor @ W-Interface (-) */
(PID.TID 0000.0001)    16 @  1.000000000000000E+00              /* K =  1: 16 */
(PID.TID 0000.0001)     ;
(PID.TID 0000.0001) rVel2wUnit = /* convert units: rVel -> wSpeed (=1 if z-coord)*/
(PID.TID 0000.0001)    16 @  1.000000000000000E+00              /* K =  1: 16 */
(PID.TID 0000.0001)     ;
(PID.TID 0000.0001) wUnit2rVel = /* convert units: wSpeed -> rVel (=1 if z-coord)*/
(PID.TID 0000.0001)    16 @  1.000000000000000E+00              /* K =  1: 16 */
(PID.TID 0000.0001)     ;
(PID.TID 0000.0001) dBdrRef = /* Vertical grad. of reference buoyancy [(m/s/r)^2] */
(PID.TID 0000.0001)    15 @  0.000000000000000E+00              /* K =  1: 15 */
(PID.TID 0000.0001)     ;
(PID.TID 0000.0001) rotateGrid = /* use rotated grid ( True/False ) */
(PID.TID 0000.0001)                   F
(PID.TID 0000.0001)     ;
(PID.TID 0000.0001) phiEuler = /* Euler angle, rotation about original z-coordinate [rad] */
(PID.TID 0000.0001)                 0.000000000000000E+00
(PID.TID 0000.0001)     ;
(PID.TID 0000.0001) thetaEuler = /* Euler angle, rotation about new x-coordinate [rad] */
(PID.TID 0000.0001)                 0.000000000000000E+00
(PID.TID 0000.0001)     ;
(PID.TID 0000.0001) psiEuler = /* Euler angle, rotation about new z-coordinate [rad] */
(PID.TID 0000.0001)                 0.000000000000000E+00
(PID.TID 0000.0001)     ;
(PID.TID 0000.0001) dxF =  /* dxF(:,1,:,1) ( units: m ) */
(PID.TID 0000.0001)   128 @  7.673714381622299E+03              /* I =  1:128 */
(PID.TID 0000.0001)     ;
(PID.TID 0000.0001) dxF =  /* dxF(1,:,1,:) ( units: m ) */
(PID.TID 0000.0001)                 7.673714381622299E+03,      /* J =  1 */
(PID.TID 0000.0001)                 2.300265649478360E+04,      /* J =  2 */
(PID.TID 0000.0001)                 3.827618319365421E+04,      /* J =  3 */
(PID.TID 0000.0001)                 5.345749921461356E+04,      /* J =  4 */
(PID.TID 0000.0001)                 6.851003143764105E+04,      /* J =  5 */
(PID.TID 0000.0001)                 8.339751699416524E+04,      /* J =  6 */
(PID.TID 0000.0001)                 9.808409062749070E+04,      /* J =  7 */
(PID.TID 0000.0001)                 1.125343710953429E+05,      /* J =  8 */
(PID.TID 0000.0001)                 1.267135464063795E+05,      /* J =  9 */
(PID.TID 0000.0001)                 1.405874576853274E+05,      /* J = 10 */
(PID.TID 0000.0001)                 1.541226814647045E+05,      /* J = 11 */
(PID.TID 0000.0001)                 1.672866102048804E+05,      /* J = 12 */
(PID.TID 0000.0001)                 1.800475308484964E+05,      /* J = 13 */
(PID.TID 0000.0001)                 1.923747012199971E+05,      /* J = 14 */
(PID.TID 0000.0001)                 2.042384240862251E+05,      /* J = 15 */
(PID.TID 0000.0001)                 2.156101186996563E+05,      /* J = 16 */
(PID.TID 0000.0001)                 2.264623896519241E+05,      /* J = 17 */
(PID.TID 0000.0001)                 2.367690928717577E+05,      /* J = 18 */
(PID.TID 0000.0001)                 2.465053986083400E+05,      /* J = 19 */
(PID.TID 0000.0001)                 2.556478512483520E+05,      /* J = 20 */
(PID.TID 0000.0001)                 2.641744258225996E+05,      /* J = 21 */
(PID.TID 0000.0001)                 2.720645810660936E+05,      /* J = 22 */
(PID.TID 0000.0001)                 2.792993089037565E+05,      /* J = 23 */
(PID.TID 0000.0001)                 2.858611802425402E+05,      /* J = 24 */
(PID.TID 0000.0001)                 2.917343869596373E+05,      /* J = 25 */
(PID.TID 0000.0001)                 2.969047799856344E+05,      /* J = 26 */
(PID.TID 0000.0001)                 3.013599033908587E+05,      /* J = 27 */
(PID.TID 0000.0001)                 3.050890243928043E+05,      /* J = 28 */
(PID.TID 0000.0001)                 3.080831592123453E+05,      /* J = 29 */
(PID.TID 0000.0001)                 3.103350947164461E+05,      /* J = 30 */
(PID.TID 0000.0001)                 3.118394057952309E+05,      /* J = 31 */
(PID.TID 0000.0001)     2 @  3.125924684315491E+05,             /* J = 32: 33 */
(PID.TID 0000.0001)                 3.118394057952309E+05,      /* J = 34 */
(PID.TID 0000.0001)                 3.103350947164461E+05,      /* J = 35 */
(PID.TID 0000.0001)                 3.080831592123453E+05,      /* J = 36 */
(PID.TID 0000.0001)                 3.050890243928043E+05,      /* J = 37 */
(PID.TID 0000.0001)                 3.013599033908587E+05,      /* J = 38 */
(PID.TID 0000.0001)                 2.969047799856344E+05,      /* J = 39 */
(PID.TID 0000.0001)                 2.917343869596373E+05,      /* J = 40 */
(PID.TID 0000.0001)                 2.858611802425402E+05,      /* J = 41 */
(PID.TID 0000.0001)                 2.792993089037565E+05,      /* J = 42 */
(PID.TID 0000.0001)                 2.720645810660936E+05,      /* J = 43 */
(PID.TID 0000.0001)                 2.641744258225996E+05,      /* J = 44 */
(PID.TID 0000.0001)                 2.556478512483520E+05,      /* J = 45 */
(PID.TID 0000.0001)                 2.465053986083400E+05,      /* J = 46 */
(PID.TID 0000.0001)                 2.367690928717577E+05,      /* J = 47 */
(PID.TID 0000.0001)                 2.264623896519241E+05,      /* J = 48 */
(PID.TID 0000.0001)                 2.156101186996563E+05,      /* J = 49 */
(PID.TID 0000.0001)                 2.042384240862251E+05,      /* J = 50 */
(PID.TID 0000.0001)                 1.923747012199971E+05,      /* J = 51 */
(PID.TID 0000.0001)                 1.800475308484964E+05,      /* J = 52 */
(PID.TID 0000.0001)                 1.672866102048804E+05,      /* J = 53 */
(PID.TID 0000.0001)                 1.541226814647045E+05,      /* J = 54 */
(PID.TID 0000.0001)                 1.405874576853274E+05,      /* J = 55 */
(PID.TID 0000.0001)                 1.267135464063795E+05,      /* J = 56 */
(PID.TID 0000.0001)                 1.125343710953429E+05,      /* J = 57 */
(PID.TID 0000.0001)                 9.808409062749070E+04,      /* J = 58 */
(PID.TID 0000.0001)                 8.339751699416524E+04,      /* J = 59 */
(PID.TID 0000.0001)                 6.851003143764105E+04,      /* J = 60 */
(PID.TID 0000.0001)                 5.345749921461356E+04,      /* J = 61 */
(PID.TID 0000.0001)                 3.827618319365421E+04,      /* J = 62 */
(PID.TID 0000.0001)                 2.300265649478360E+04,      /* J = 63 */
(PID.TID 0000.0001)                 7.673714381622299E+03       /* J = 64 */
(PID.TID 0000.0001)     ;
(PID.TID 0000.0001) dyF =  /* dyF(:,1,:,1) ( units: m ) */
(PID.TID 0000.0001)   128 @  3.126866438026091E+05              /* I =  1:128 */
(PID.TID 0000.0001)     ;
(PID.TID 0000.0001) dyF =  /* dyF(1,:,1,:) ( units: m ) */
(PID.TID 0000.0001)    64 @  3.126866438026091E+05              /* J =  1: 64 */
(PID.TID 0000.0001)     ;
(PID.TID 0000.0001) dxG =  /* dxG(:,1,:,1) ( units: m ) */
(PID.TID 0000.0001)   128 @  0.000000000000000E+00              /* I =  1:128 */
(PID.TID 0000.0001)     ;
(PID.TID 0000.0001) dxG =  /* dxG(1,:,1,:) ( units: m ) */
(PID.TID 0000.0001)                 0.000000000000000E+00,      /* J =  1 */
(PID.TID 0000.0001)                 1.534280640463982E+04,      /* J =  2 */
(PID.TID 0000.0001)                 3.064865064477965E+04,      /* J =  3 */
(PID.TID 0000.0001)                 4.588065960101153E+04,      /* J =  4 */
(PID.TID 0000.0001)                 6.100213802959342E+04,      /* J =  5 */
(PID.TID 0000.0001)                 7.597665696450579E+04,      /* J =  6 */
(PID.TID 0000.0001)                 9.076814147802141E+04,      /* J =  7 */
(PID.TID 0000.0001)                 1.053409575883663E+05,      /* J =  8 */
(PID.TID 0000.0001)                 1.196599981051027E+05,      /* J =  9 */
(PID.TID 0000.0001)                 1.336907672054259E+05,      /* J = 10 */
(PID.TID 0000.0001)                 1.473994635376230E+05,      /* J = 11 */
(PID.TID 0000.0001)                 1.607530616514898E+05,      /* J = 12 */
(PID.TID 0000.0001)                 1.737193915595329E+05,      /* J = 13 */
(PID.TID 0000.0001)                 1.862672162372875E+05,      /* J = 14 */
(PID.TID 0000.0001)                 1.983663068760452E+05,      /* J = 15 */
(PID.TID 0000.0001)                 2.099875157067021E+05,      /* J = 16 */
(PID.TID 0000.0001)                 2.211028462192875E+05,      /* J = 17 */
(PID.TID 0000.0001)                 2.316855206090085E+05,      /* J = 18 */
(PID.TID 0000.0001)                 2.417100442863276E+05,      /* J = 19 */
(PID.TID 0000.0001)                 2.511522672956614E+05,      /* J = 20 */
(PID.TID 0000.0001)                 2.599894424947394E+05,      /* J = 21 */
(PID.TID 0000.0001)                 2.682002803544621E+05,      /* J = 22 */
(PID.TID 0000.0001)                 2.757650002472408E+05,      /* J = 23 */
(PID.TID 0000.0001)                 2.826653781002625E+05,      /* J = 24 */
(PID.TID 0000.0001)                 2.888847902988777E+05,      /* J = 25 */
(PID.TID 0000.0001)                 2.944082537343438E+05,      /* J = 26 */
(PID.TID 0000.0001)                 2.992224618994463E+05,      /* J = 27 */
(PID.TID 0000.0001)                 3.033158169450409E+05,      /* J = 28 */
(PID.TID 0000.0001)                 3.066784576202870E+05,      /* J = 29 */
(PID.TID 0000.0001)                 3.093022830292655E+05,      /* J = 30 */
(PID.TID 0000.0001)                 3.111809721467461E+05,      /* J = 31 */
(PID.TID 0000.0001)                 3.123099990460912E+05,      /* J = 32 */
(PID.TID 0000.0001)                 3.126866438026091E+05,      /* J = 33 */
(PID.TID 0000.0001)                 3.123099990460912E+05,      /* J = 34 */
(PID.TID 0000.0001)                 3.111809721467461E+05,      /* J = 35 */
(PID.TID 0000.0001)                 3.093022830292655E+05,      /* J = 36 */
(PID.TID 0000.0001)                 3.066784576202870E+05,      /* J = 37 */
(PID.TID 0000.0001)                 3.033158169450409E+05,      /* J = 38 */
(PID.TID 0000.0001)                 2.992224618994463E+05,      /* J = 39 */
(PID.TID 0000.0001)                 2.944082537343438E+05,      /* J = 40 */
(PID.TID 0000.0001)                 2.888847902988777E+05,      /* J = 41 */
(PID.TID 0000.0001)                 2.826653781002625E+05,      /* J = 42 */
(PID.TID 0000.0001)                 2.757650002472408E+05,      /* J = 43 */
(PID.TID 0000.0001)                 2.682002803544621E+05,      /* J = 44 */
(PID.TID 0000.0001)                 2.599894424947394E+05,      /* J = 45 */
(PID.TID 0000.0001)                 2.511522672956614E+05,      /* J = 46 */
(PID.TID 0000.0001)                 2.417100442863276E+05,      /* J = 47 */
(PID.TID 0000.0001)                 2.316855206090085E+05,      /* J = 48 */
(PID.TID 0000.0001)                 2.211028462192875E+05,      /* J = 49 */
(PID.TID 0000.0001)                 2.099875157067021E+05,      /* J = 50 */
(PID.TID 0000.0001)                 1.983663068760452E+05,      /* J = 51 */
(PID.TID 0000.0001)                 1.862672162372875E+05,      /* J = 52 */
(PID.TID 0000.0001)                 1.737193915595329E+05,      /* J = 53 */
(PID.TID 0000.0001)                 1.607530616514898E+05,      /* J = 54 */
(PID.TID 0000.0001)                 1.473994635376230E+05,      /* J = 55 */
(PID.TID 0000.0001)                 1.336907672054259E+05,      /* J = 56 */
(PID.TID 0000.0001)                 1.196599981051027E+05,      /* J = 57 */
(PID.TID 0000.0001)                 1.053409575883663E+05,      /* J = 58 */
(PID.TID 0000.0001)                 9.076814147802141E+04,      /* J = 59 */
(PID.TID 0000.0001)                 7.597665696450579E+04,      /* J = 60 */
(PID.TID 0000.0001)                 6.100213802959342E+04,      /* J = 61 */
(PID.TID 0000.0001)                 4.588065960101153E+04,      /* J = 62 */
(PID.TID 0000.0001)                 3.064865064477965E+04,      /* J = 63 */
(PID.TID 0000.0001)                 1.534280640463982E+04       /* J = 64 */
(PID.TID 0000.0001)     ;
(PID.TID 0000.0001) dyG =  /* dyG(:,1,:,1) ( units: m ) */
(PID.TID 0000.0001)   128 @  3.126866438026091E+05              /* I =  1:128 */
(PID.TID 0000.0001)     ;
(PID.TID 0000.0001) dyG =  /* dyG(1,:,1,:) ( units: m ) */
(PID.TID 0000.0001)    64 @  3.126866438026091E+05              /* J =  1: 64 */
(PID.TID 0000.0001)     ;
(PID.TID 0000.0001) dxC =  /* dxC(:,1,:,1) ( units: m ) */
(PID.TID 0000.0001)   128 @  7.673714381622299E+03              /* I =  1:128 */
(PID.TID 0000.0001)     ;
(PID.TID 0000.0001) dxC =  /* dxC(1,:,1,:) ( units: m ) */
(PID.TID 0000.0001)                 7.673714381622299E+03,      /* J =  1 */
(PID.TID 0000.0001)                 2.300265649478360E+04,      /* J =  2 */
(PID.TID 0000.0001)                 3.827618319365421E+04,      /* J =  3 */
(PID.TID 0000.0001)                 5.345749921461356E+04,      /* J =  4 */
(PID.TID 0000.0001)                 6.851003143764105E+04,      /* J =  5 */
(PID.TID 0000.0001)                 8.339751699416524E+04,      /* J =  6 */
(PID.TID 0000.0001)                 9.808409062749070E+04,      /* J =  7 */
(PID.TID 0000.0001)                 1.125343710953429E+05,      /* J =  8 */
(PID.TID 0000.0001)                 1.267135464063795E+05,      /* J =  9 */
(PID.TID 0000.0001)                 1.405874576853274E+05,      /* J = 10 */
(PID.TID 0000.0001)                 1.541226814647045E+05,      /* J = 11 */
(PID.TID 0000.0001)                 1.672866102048804E+05,      /* J = 12 */
(PID.TID 0000.0001)                 1.800475308484964E+05,      /* J = 13 */
(PID.TID 0000.0001)                 1.923747012199971E+05,      /* J = 14 */
(PID.TID 0000.0001)                 2.042384240862251E+05,      /* J = 15 */
(PID.TID 0000.0001)                 2.156101186996563E+05,      /* J = 16 */
(PID.TID 0000.0001)                 2.264623896519241E+05,      /* J = 17 */
(PID.TID 0000.0001)                 2.367690928717577E+05,      /* J = 18 */
(PID.TID 0000.0001)                 2.465053986083400E+05,      /* J = 19 */
(PID.TID 0000.0001)                 2.556478512483520E+05,      /* J = 20 */
(PID.TID 0000.0001)                 2.641744258225996E+05,      /* J = 21 */
(PID.TID 0000.0001)                 2.720645810660936E+05,      /* J = 22 */
(PID.TID 0000.0001)                 2.792993089037565E+05,      /* J = 23 */
(PID.TID 0000.0001)                 2.858611802425402E+05,      /* J = 24 */
(PID.TID 0000.0001)                 2.917343869596373E+05,      /* J = 25 */
(PID.TID 0000.0001)                 2.969047799856344E+05,      /* J = 26 */
(PID.TID 0000.0001)                 3.013599033908587E+05,      /* J = 27 */
(PID.TID 0000.0001)                 3.050890243928043E+05,      /* J = 28 */
(PID.TID 0000.0001)                 3.080831592123453E+05,      /* J = 29 */
(PID.TID 0000.0001)                 3.103350947164461E+05,      /* J = 30 */
(PID.TID 0000.0001)                 3.118394057952309E+05,      /* J = 31 */
(PID.TID 0000.0001)     2 @  3.125924684315491E+05,             /* J = 32: 33 */
(PID.TID 0000.0001)                 3.118394057952309E+05,      /* J = 34 */
(PID.TID 0000.0001)                 3.103350947164461E+05,      /* J = 35 */
(PID.TID 0000.0001)                 3.080831592123453E+05,      /* J = 36 */
(PID.TID 0000.0001)                 3.050890243928043E+05,      /* J = 37 */
(PID.TID 0000.0001)                 3.013599033908587E+05,      /* J = 38 */
(PID.TID 0000.0001)                 2.969047799856344E+05,      /* J = 39 */
(PID.TID 0000.0001)                 2.917343869596373E+05,      /* J = 40 */
(PID.TID 0000.0001)                 2.858611802425402E+05,      /* J = 41 */
(PID.TID 0000.0001)                 2.792993089037565E+05,      /* J = 42 */
(PID.TID 0000.0001)                 2.720645810660936E+05,      /* J = 43 */
(PID.TID 0000.0001)                 2.641744258225996E+05,      /* J = 44 */
(PID.TID 0000.0001)                 2.556478512483520E+05,      /* J = 45 */
(PID.TID 0000.0001)                 2.465053986083400E+05,      /* J = 46 */
(PID.TID 0000.0001)                 2.367690928717577E+05,      /* J = 47 */
(PID.TID 0000.0001)                 2.264623896519241E+05,      /* J = 48 */
(PID.TID 0000.0001)                 2.156101186996563E+05,      /* J = 49 */
(PID.TID 0000.0001)                 2.042384240862251E+05,      /* J = 50 */
(PID.TID 0000.0001)                 1.923747012199971E+05,      /* J = 51 */
(PID.TID 0000.0001)                 1.800475308484964E+05,      /* J = 52 */
(PID.TID 0000.0001)                 1.672866102048804E+05,      /* J = 53 */
(PID.TID 0000.0001)                 1.541226814647045E+05,      /* J = 54 */
(PID.TID 0000.0001)                 1.405874576853274E+05,      /* J = 55 */
(PID.TID 0000.0001)                 1.267135464063795E+05,      /* J = 56 */
(PID.TID 0000.0001)                 1.125343710953429E+05,      /* J = 57 */
(PID.TID 0000.0001)                 9.808409062749070E+04,      /* J = 58 */
(PID.TID 0000.0001)                 8.339751699416524E+04,      /* J = 59 */
(PID.TID 0000.0001)                 6.851003143764105E+04,      /* J = 60 */
(PID.TID 0000.0001)                 5.345749921461356E+04,      /* J = 61 */
(PID.TID 0000.0001)                 3.827618319365421E+04,      /* J = 62 */
(PID.TID 0000.0001)                 2.300265649478360E+04,      /* J = 63 */
(PID.TID 0000.0001)                 7.673714381622299E+03       /* J = 64 */
(PID.TID 0000.0001)     ;
(PID.TID 0000.0001) dyC =  /* dyC(:,1,:,1) ( units: m ) */
(PID.TID 0000.0001)   128 @  3.126866438026091E+05              /* I =  1:128 */
(PID.TID 0000.0001)     ;
(PID.TID 0000.0001) dyC =  /* dyC(1,:,1,:) ( units: m ) */
(PID.TID 0000.0001)    64 @  3.126866438026091E+05              /* J =  1: 64 */
(PID.TID 0000.0001)     ;
(PID.TID 0000.0001) dxV =  /* dxV(:,1,:,1) ( units: m ) */
(PID.TID 0000.0001)   128 @  0.000000000000000E+00              /* I =  1:128 */
(PID.TID 0000.0001)     ;
(PID.TID 0000.0001) dxV =  /* dxV(1,:,1,:) ( units: m ) */
(PID.TID 0000.0001)                 0.000000000000000E+00,      /* J =  1 */
(PID.TID 0000.0001)                 1.534280640463982E+04,      /* J =  2 */
(PID.TID 0000.0001)                 3.064865064477965E+04,      /* J =  3 */
(PID.TID 0000.0001)                 4.588065960101153E+04,      /* J =  4 */
(PID.TID 0000.0001)                 6.100213802959342E+04,      /* J =  5 */
(PID.TID 0000.0001)                 7.597665696450579E+04,      /* J =  6 */
(PID.TID 0000.0001)                 9.076814147802141E+04,      /* J =  7 */
(PID.TID 0000.0001)                 1.053409575883663E+05,      /* J =  8 */
(PID.TID 0000.0001)                 1.196599981051027E+05,      /* J =  9 */
(PID.TID 0000.0001)                 1.336907672054259E+05,      /* J = 10 */
(PID.TID 0000.0001)                 1.473994635376230E+05,      /* J = 11 */
(PID.TID 0000.0001)                 1.607530616514898E+05,      /* J = 12 */
(PID.TID 0000.0001)                 1.737193915595329E+05,      /* J = 13 */
(PID.TID 0000.0001)                 1.862672162372875E+05,      /* J = 14 */
(PID.TID 0000.0001)                 1.983663068760452E+05,      /* J = 15 */
(PID.TID 0000.0001)                 2.099875157067021E+05,      /* J = 16 */
(PID.TID 0000.0001)                 2.211028462192875E+05,      /* J = 17 */
(PID.TID 0000.0001)                 2.316855206090085E+05,      /* J = 18 */
(PID.TID 0000.0001)                 2.417100442863276E+05,      /* J = 19 */
(PID.TID 0000.0001)                 2.511522672956614E+05,      /* J = 20 */
(PID.TID 0000.0001)                 2.599894424947394E+05,      /* J = 21 */
(PID.TID 0000.0001)                 2.682002803544621E+05,      /* J = 22 */
(PID.TID 0000.0001)                 2.757650002472408E+05,      /* J = 23 */
(PID.TID 0000.0001)                 2.826653781002625E+05,      /* J = 24 */
(PID.TID 0000.0001)                 2.888847902988777E+05,      /* J = 25 */
(PID.TID 0000.0001)                 2.944082537343438E+05,      /* J = 26 */
(PID.TID 0000.0001)                 2.992224618994463E+05,      /* J = 27 */
(PID.TID 0000.0001)                 3.033158169450409E+05,      /* J = 28 */
(PID.TID 0000.0001)                 3.066784576202870E+05,      /* J = 29 */
(PID.TID 0000.0001)                 3.093022830292655E+05,      /* J = 30 */
(PID.TID 0000.0001)                 3.111809721467461E+05,      /* J = 31 */
(PID.TID 0000.0001)                 3.123099990460912E+05,      /* J = 32 */
(PID.TID 0000.0001)                 3.126866438026091E+05,      /* J = 33 */
(PID.TID 0000.0001)                 3.123099990460912E+05,      /* J = 34 */
(PID.TID 0000.0001)                 3.111809721467461E+05,      /* J = 35 */
(PID.TID 0000.0001)                 3.093022830292655E+05,      /* J = 36 */
(PID.TID 0000.0001)                 3.066784576202870E+05,      /* J = 37 */
(PID.TID 0000.0001)                 3.033158169450409E+05,      /* J = 38 */
(PID.TID 0000.0001)                 2.992224618994463E+05,      /* J = 39 */
(PID.TID 0000.0001)                 2.944082537343438E+05,      /* J = 40 */
(PID.TID 0000.0001)                 2.888847902988777E+05,      /* J = 41 */
(PID.TID 0000.0001)                 2.826653781002625E+05,      /* J = 42 */
(PID.TID 0000.0001)                 2.757650002472408E+05,      /* J = 43 */
(PID.TID 0000.0001)                 2.682002803544621E+05,      /* J = 44 */
(PID.TID 0000.0001)                 2.599894424947394E+05,      /* J = 45 */
(PID.TID 0000.0001)                 2.511522672956614E+05,      /* J = 46 */
(PID.TID 0000.0001)                 2.417100442863276E+05,      /* J = 47 */
(PID.TID 0000.0001)                 2.316855206090085E+05,      /* J = 48 */
(PID.TID 0000.0001)                 2.211028462192875E+05,      /* J = 49 */
(PID.TID 0000.0001)                 2.099875157067021E+05,      /* J = 50 */
(PID.TID 0000.0001)                 1.983663068760452E+05,      /* J = 51 */
(PID.TID 0000.0001)                 1.862672162372875E+05,      /* J = 52 */
(PID.TID 0000.0001)                 1.737193915595329E+05,      /* J = 53 */
(PID.TID 0000.0001)                 1.607530616514898E+05,      /* J = 54 */
(PID.TID 0000.0001)                 1.473994635376230E+05,      /* J = 55 */
(PID.TID 0000.0001)                 1.336907672054259E+05,      /* J = 56 */
(PID.TID 0000.0001)                 1.196599981051027E+05,      /* J = 57 */
(PID.TID 0000.0001)                 1.053409575883663E+05,      /* J = 58 */
(PID.TID 0000.0001)                 9.076814147802141E+04,      /* J = 59 */
(PID.TID 0000.0001)                 7.597665696450579E+04,      /* J = 60 */
(PID.TID 0000.0001)                 6.100213802959342E+04,      /* J = 61 */
(PID.TID 0000.0001)                 4.588065960101153E+04,      /* J = 62 */
(PID.TID 0000.0001)                 3.064865064477965E+04,      /* J = 63 */
(PID.TID 0000.0001)                 1.534280640463982E+04       /* J = 64 */
(PID.TID 0000.0001)     ;
(PID.TID 0000.0001) dyU =  /* dyU(:,1,:,1) ( units: m ) */
(PID.TID 0000.0001)   128 @  3.126866438026091E+05              /* I =  1:128 */
(PID.TID 0000.0001)     ;
(PID.TID 0000.0001) dyU =  /* dyU(1,:,1,:) ( units: m ) */
(PID.TID 0000.0001)    64 @  3.126866438026091E+05              /* J =  1: 64 */
(PID.TID 0000.0001)     ;
(PID.TID 0000.0001) rA  =  /* rA (:,1,:,1) ( units: m^2 ) */
(PID.TID 0000.0001)   128 @  2.399227099019018E+09              /* I =  1:128 */
(PID.TID 0000.0001)     ;
(PID.TID 0000.0001) rA  =  /* rA (1,:,1,:) ( units: m^2 ) */
(PID.TID 0000.0001)                 2.399227099019018E+09,      /* J =  1 */
(PID.TID 0000.0001)                 7.191901348828056E+09,      /* J =  2 */
(PID.TID 0000.0001)                 1.196724967835171E+10,      /* J =  3 */
(PID.TID 0000.0001)                 1.671376785519299E+10,      /* J =  4 */
(PID.TID 0000.0001)                 2.142002110131771E+10,      /* J =  5 */
(PID.TID 0000.0001)                 2.607467164043704E+10,      /* J =  6 */
(PID.TID 0000.0001)                 3.066650601170349E+10,      /* J =  7 */
(PID.TID 0000.0001)                 3.518446208391881E+10,      /* J =  8 */
(PID.TID 0000.0001)                 3.961765570517892E+10,      /* J =  9 */
(PID.TID 0000.0001)                 4.395540692374860E+10,      /* J = 10 */
(PID.TID 0000.0001)                 4.818726571700000E+10,      /* J = 11 */
(PID.TID 0000.0001)                 5.230303716643333E+10,      /* J = 12 */
(PID.TID 0000.0001)                 5.629280601812741E+10,      /* J = 13 */
(PID.TID 0000.0001)                 6.014696056945659E+10,      /* J = 14 */
(PID.TID 0000.0001)                 6.385621582452237E+10,      /* J = 15 */
(PID.TID 0000.0001)                 6.741163586252303E+10,      /* J = 16 */
(PID.TID 0000.0001)                 7.080465536516846E+10,      /* J = 17 */
(PID.TID 0000.0001)                 7.402710025128452E+10,      /* J = 18 */
(PID.TID 0000.0001)                 7.707120736888658E+10,      /* J = 19 */
(PID.TID 0000.0001)                 7.992964319729683E+10,      /* J = 20 */
(PID.TID 0000.0001)                 8.259552151423444E+10,      /* J = 21 */
(PID.TID 0000.0001)                 8.506241998533159E+10,      /* J = 22 */
(PID.TID 0000.0001)                 8.732439563609566E+10,      /* J = 23 */
(PID.TID 0000.0001)                 8.937599916905872E+10,      /* J = 24 */
(PID.TID 0000.0001)                 9.121228809161066E+10,      /* J = 25 */
(PID.TID 0000.0001)                 9.282883862289705E+10,      /* J = 26 */
(PID.TID 0000.0001)                 9.422175635109474E+10,      /* J = 27 */
(PID.TID 0000.0001)                 9.538768561539165E+10,      /* J = 28 */
(PID.TID 0000.0001)                 9.632381759006650E+10,      /* J = 29 */
(PID.TID 0000.0001)                 9.702789705119698E+10,      /* J = 30 */
(PID.TID 0000.0001)                 9.749822780969106E+10,      /* J = 31 */
(PID.TID 0000.0001)     2 @  9.773367679755542E+10,             /* J = 32: 33 */
(PID.TID 0000.0001)                 9.749822780969106E+10,      /* J = 34 */
(PID.TID 0000.0001)                 9.702789705119698E+10,      /* J = 35 */
(PID.TID 0000.0001)                 9.632381759006650E+10,      /* J = 36 */
(PID.TID 0000.0001)                 9.538768561539165E+10,      /* J = 37 */
(PID.TID 0000.0001)                 9.422175635109474E+10,      /* J = 38 */
(PID.TID 0000.0001)                 9.282883862289705E+10,      /* J = 39 */
(PID.TID 0000.0001)                 9.121228809161066E+10,      /* J = 40 */
(PID.TID 0000.0001)                 8.937599916905872E+10,      /* J = 41 */
(PID.TID 0000.0001)                 8.732439563609566E+10,      /* J = 42 */
(PID.TID 0000.0001)                 8.506241998533159E+10,      /* J = 43 */
(PID.TID 0000.0001)                 8.259552151423444E+10,      /* J = 44 */
(PID.TID 0000.0001)                 7.992964319729683E+10,      /* J = 45 */
(PID.TID 0000.0001)                 7.707120736888658E+10,      /* J = 46 */
(PID.TID 0000.0001)                 7.402710025128452E+10,      /* J = 47 */
(PID.TID 0000.0001)                 7.080465536516846E+10,      /* J = 48 */
(PID.TID 0000.0001)                 6.741163586252303E+10,      /* J = 49 */
(PID.TID 0000.0001)                 6.385621582452237E+10,      /* J = 50 */
(PID.TID 0000.0001)                 6.014696056945659E+10,      /* J = 51 */
(PID.TID 0000.0001)                 5.629280601812741E+10,      /* J = 52 */
(PID.TID 0000.0001)                 5.230303716643333E+10,      /* J = 53 */
(PID.TID 0000.0001)                 4.818726571700000E+10,      /* J = 54 */
(PID.TID 0000.0001)                 4.395540692374860E+10,      /* J = 55 */
(PID.TID 0000.0001)                 3.961765570517892E+10,      /* J = 56 */
(PID.TID 0000.0001)                 3.518446208391881E+10,      /* J = 57 */
(PID.TID 0000.0001)                 3.066650601170349E+10,      /* J = 58 */
(PID.TID 0000.0001)                 2.607467164043704E+10,      /* J = 59 */
(PID.TID 0000.0001)                 2.142002110131771E+10,      /* J = 60 */
(PID.TID 0000.0001)                 1.671376785519299E+10,      /* J = 61 */
(PID.TID 0000.0001)                 1.196724967835171E+10,      /* J = 62 */
(PID.TID 0000.0001)                 7.191901348828056E+09,      /* J = 63 */
(PID.TID 0000.0001)                 2.399227099019018E+09       /* J = 64 */
(PID.TID 0000.0001)     ;
(PID.TID 0000.0001) rAw =  /* rAw(:,1,:,1) ( units: m^2 ) */
(PID.TID 0000.0001)   128 @  2.399227099019018E+09              /* I =  1:128 */
(PID.TID 0000.0001)     ;
(PID.TID 0000.0001) rAw =  /* rAw(1,:,1,:) ( units: m^2 ) */
(PID.TID 0000.0001)                 2.399227099019018E+09,      /* J =  1 */
(PID.TID 0000.0001)                 7.191901348828056E+09,      /* J =  2 */
(PID.TID 0000.0001)                 1.196724967835171E+10,      /* J =  3 */
(PID.TID 0000.0001)                 1.671376785519299E+10,      /* J =  4 */
(PID.TID 0000.0001)                 2.142002110131771E+10,      /* J =  5 */
(PID.TID 0000.0001)                 2.607467164043704E+10,      /* J =  6 */
(PID.TID 0000.0001)                 3.066650601170349E+10,      /* J =  7 */
(PID.TID 0000.0001)                 3.518446208391881E+10,      /* J =  8 */
(PID.TID 0000.0001)                 3.961765570517892E+10,      /* J =  9 */
(PID.TID 0000.0001)                 4.395540692374860E+10,      /* J = 10 */
(PID.TID 0000.0001)                 4.818726571700000E+10,      /* J = 11 */
(PID.TID 0000.0001)                 5.230303716643333E+10,      /* J = 12 */
(PID.TID 0000.0001)                 5.629280601812741E+10,      /* J = 13 */
(PID.TID 0000.0001)                 6.014696056945659E+10,      /* J = 14 */
(PID.TID 0000.0001)                 6.385621582452237E+10,      /* J = 15 */
(PID.TID 0000.0001)                 6.741163586252303E+10,      /* J = 16 */
(PID.TID 0000.0001)                 7.080465536516846E+10,      /* J = 17 */
(PID.TID 0000.0001)                 7.402710025128452E+10,      /* J = 18 */
(PID.TID 0000.0001)                 7.707120736888658E+10,      /* J = 19 */
(PID.TID 0000.0001)                 7.992964319729683E+10,      /* J = 20 */
(PID.TID 0000.0001)                 8.259552151423444E+10,      /* J = 21 */
(PID.TID 0000.0001)                 8.506241998533159E+10,      /* J = 22 */
(PID.TID 0000.0001)                 8.732439563609566E+10,      /* J = 23 */
(PID.TID 0000.0001)                 8.937599916905872E+10,      /* J = 24 */
(PID.TID 0000.0001)                 9.121228809161066E+10,      /* J = 25 */
(PID.TID 0000.0001)                 9.282883862289705E+10,      /* J = 26 */
(PID.TID 0000.0001)                 9.422175635109474E+10,      /* J = 27 */
(PID.TID 0000.0001)                 9.538768561539165E+10,      /* J = 28 */
(PID.TID 0000.0001)                 9.632381759006650E+10,      /* J = 29 */
(PID.TID 0000.0001)                 9.702789705119698E+10,      /* J = 30 */
(PID.TID 0000.0001)                 9.749822780969106E+10,      /* J = 31 */
(PID.TID 0000.0001)     2 @  9.773367679755542E+10,             /* J = 32: 33 */
(PID.TID 0000.0001)                 9.749822780969106E+10,      /* J = 34 */
(PID.TID 0000.0001)                 9.702789705119698E+10,      /* J = 35 */
(PID.TID 0000.0001)                 9.632381759006650E+10,      /* J = 36 */
(PID.TID 0000.0001)                 9.538768561539165E+10,      /* J = 37 */
(PID.TID 0000.0001)                 9.422175635109474E+10,      /* J = 38 */
(PID.TID 0000.0001)                 9.282883862289705E+10,      /* J = 39 */
(PID.TID 0000.0001)                 9.121228809161066E+10,      /* J = 40 */
(PID.TID 0000.0001)                 8.937599916905872E+10,      /* J = 41 */
(PID.TID 0000.0001)                 8.732439563609566E+10,      /* J = 42 */
(PID.TID 0000.0001)                 8.506241998533159E+10,      /* J = 43 */
(PID.TID 0000.0001)                 8.259552151423444E+10,      /* J = 44 */
(PID.TID 0000.0001)                 7.992964319729683E+10,      /* J = 45 */
(PID.TID 0000.0001)                 7.707120736888658E+10,      /* J = 46 */
(PID.TID 0000.0001)                 7.402710025128452E+10,      /* J = 47 */
(PID.TID 0000.0001)                 7.080465536516846E+10,      /* J = 48 */
(PID.TID 0000.0001)                 6.741163586252303E+10,      /* J = 49 */
(PID.TID 0000.0001)                 6.385621582452237E+10,      /* J = 50 */
(PID.TID 0000.0001)                 6.014696056945659E+10,      /* J = 51 */
(PID.TID 0000.0001)                 5.629280601812741E+10,      /* J = 52 */
(PID.TID 0000.0001)                 5.230303716643333E+10,      /* J = 53 */
(PID.TID 0000.0001)                 4.818726571700000E+10,      /* J = 54 */
(PID.TID 0000.0001)                 4.395540692374860E+10,      /* J = 55 */
(PID.TID 0000.0001)                 3.961765570517892E+10,      /* J = 56 */
(PID.TID 0000.0001)                 3.518446208391881E+10,      /* J = 57 */
(PID.TID 0000.0001)                 3.066650601170349E+10,      /* J = 58 */
(PID.TID 0000.0001)                 2.607467164043704E+10,      /* J = 59 */
(PID.TID 0000.0001)                 2.142002110131771E+10,      /* J = 60 */
(PID.TID 0000.0001)                 1.671376785519299E+10,      /* J = 61 */
(PID.TID 0000.0001)                 1.196724967835171E+10,      /* J = 62 */
(PID.TID 0000.0001)                 7.191901348828056E+09,      /* J = 63 */
(PID.TID 0000.0001)                 2.399227099019018E+09       /* J = 64 */
(PID.TID 0000.0001)     ;
(PID.TID 0000.0001) rAs =  /* rAs(:,1,:,1) ( units: m^2 ) */
(PID.TID 0000.0001)   128 @  0.000000000000000E+00              /* I =  1:128 */
(PID.TID 0000.0001)     ;
(PID.TID 0000.0001) rAs =  /* rAs(1,:,1,:) ( units: m^2 ) */
(PID.TID 0000.0001)                 0.000000000000000E+00,      /* J =  1 */
(PID.TID 0000.0001)                 4.797008993346594E+09,      /* J =  2 */
(PID.TID 0000.0001)                 9.582461571859739E+09,      /* J =  3 */
(PID.TID 0000.0001)                 1.434482916112175E+10,      /* J =  4 */
(PID.TID 0000.0001)                 1.907263880047594E+10,      /* J =  5 */
(PID.TID 0000.0001)                 2.375450078239423E+10,      /* J =  6 */
(PID.TID 0000.0001)                 2.837913609127881E+10,      /* J =  7 */
(PID.TID 0000.0001)                 3.293540357560110E+10,      /* J =  8 */
(PID.TID 0000.0001)                 3.741232678790870E+10,      /* J =  9 */
(PID.TID 0000.0001)                 4.179912042805190E+10,      /* J = 10 */
(PID.TID 0000.0001)                 4.608521632591324E+10,      /* J = 11 */
(PID.TID 0000.0001)                 5.026028890105701E+10,      /* J = 12 */
(PID.TID 0000.0001)                 5.431428003795675E+10,      /* J = 13 */
(PID.TID 0000.0001)                 5.823742331687641E+10,      /* J = 14 */
(PID.TID 0000.0001)                 6.202026754202965E+10,      /* J = 15 */
(PID.TID 0000.0001)                 6.565369951034003E+10,      /* J = 16 */
(PID.TID 0000.0001)                 6.912896596594559E+10,      /* J = 17 */
(PID.TID 0000.0001)                 7.243769468755632E+10,      /* J = 18 */
(PID.TID 0000.0001)                 7.557191465787256E+10,      /* J = 19 */
(PID.TID 0000.0001)                 7.852407526645966E+10,      /* J = 20 */
(PID.TID 0000.0001)                 8.128706449983365E+10,      /* J = 21 */
(PID.TID 0000.0001)                 8.385422607492096E+10,      /* J = 22 */
(PID.TID 0000.0001)                 8.621937547463148E+10,      /* J = 23 */
(PID.TID 0000.0001)                 8.837681484689812E+10,      /* J = 24 */
(PID.TID 0000.0001)                 9.032134673130376E+10,      /* J = 25 */
(PID.TID 0000.0001)                 9.204828658021815E+10,      /* J = 26 */
(PID.TID 0000.0001)                 9.355347404428317E+10,      /* J = 27 */
(PID.TID 0000.0001)                 9.483328299505896E+10,      /* J = 28 */
(PID.TID 0000.0001)                 9.588463026068500E+10,      /* J = 29 */
(PID.TID 0000.0001)                 9.670498305351135E+10,      /* J = 30 */
(PID.TID 0000.0001)                 9.729236507180571E+10,      /* J = 31 */
(PID.TID 0000.0001)                 9.764536126083739E+10,      /* J = 32 */
(PID.TID 0000.0001)                 9.776312122186816E+10,      /* J = 33 */
(PID.TID 0000.0001)                 9.764536126083739E+10,      /* J = 34 */
(PID.TID 0000.0001)                 9.729236507180571E+10,      /* J = 35 */
(PID.TID 0000.0001)                 9.670498305351135E+10,      /* J = 36 */
(PID.TID 0000.0001)                 9.588463026068500E+10,      /* J = 37 */
(PID.TID 0000.0001)                 9.483328299505896E+10,      /* J = 38 */
(PID.TID 0000.0001)                 9.355347404428317E+10,      /* J = 39 */
(PID.TID 0000.0001)                 9.204828658021815E+10,      /* J = 40 */
(PID.TID 0000.0001)                 9.032134673130376E+10,      /* J = 41 */
(PID.TID 0000.0001)                 8.837681484689812E+10,      /* J = 42 */
(PID.TID 0000.0001)                 8.621937547463148E+10,      /* J = 43 */
(PID.TID 0000.0001)                 8.385422607492096E+10,      /* J = 44 */
(PID.TID 0000.0001)                 8.128706449983365E+10,      /* J = 45 */
(PID.TID 0000.0001)                 7.852407526645966E+10,      /* J = 46 */
(PID.TID 0000.0001)                 7.557191465787256E+10,      /* J = 47 */
(PID.TID 0000.0001)                 7.243769468755632E+10,      /* J = 48 */
(PID.TID 0000.0001)                 6.912896596594559E+10,      /* J = 49 */
(PID.TID 0000.0001)                 6.565369951034003E+10,      /* J = 50 */
(PID.TID 0000.0001)                 6.202026754202965E+10,      /* J = 51 */
(PID.TID 0000.0001)                 5.823742331687641E+10,      /* J = 52 */
(PID.TID 0000.0001)                 5.431428003795675E+10,      /* J = 53 */
(PID.TID 0000.0001)                 5.026028890105701E+10,      /* J = 54 */
(PID.TID 0000.0001)                 4.608521632591324E+10,      /* J = 55 */
(PID.TID 0000.0001)                 4.179912042805190E+10,      /* J = 56 */
(PID.TID 0000.0001)                 3.741232678790870E+10,      /* J = 57 */
(PID.TID 0000.0001)                 3.293540357560110E+10,      /* J = 58 */
(PID.TID 0000.0001)                 2.837913609127881E+10,      /* J = 59 */
(PID.TID 0000.0001)                 2.375450078239423E+10,      /* J = 60 */
(PID.TID 0000.0001)                 1.907263880047594E+10,      /* J = 61 */
(PID.TID 0000.0001)                 1.434482916112175E+10,      /* J = 62 */
(PID.TID 0000.0001)                 9.582461571859739E+09,      /* J = 63 */
(PID.TID 0000.0001)                 4.797008993346594E+09       /* J = 64 */
(PID.TID 0000.0001)     ;
(PID.TID 0000.0001) globalArea = /* Integrated horizontal Area (m^2) */
(PID.TID 0000.0001)                 3.303322488638320E+14
(PID.TID 0000.0001)     ;
(PID.TID 0000.0001) the_run_name = /* Name of this simulation */
(PID.TID 0000.0001)               'Tutorial Biogeo'
(PID.TID 0000.0001)     ;
(PID.TID 0000.0001) // =======================================================
(PID.TID 0000.0001) // End of Model config. summary
(PID.TID 0000.0001) // =======================================================
(PID.TID 0000.0001) 
(PID.TID 0000.0001) == Packages configuration : Check & print summary ==
(PID.TID 0000.0001) 
(PID.TID 0000.0001) GMREDI_CHECK: #define GMREDI
(PID.TID 0000.0001) GM_AdvForm =     /* if FALSE => use SkewFlux Form */
(PID.TID 0000.0001)                   F
(PID.TID 0000.0001)     ;
(PID.TID 0000.0001) GM_InMomAsStress = /* if TRUE => apply as Eddy Stress */
(PID.TID 0000.0001)                   F
(PID.TID 0000.0001)     ;
(PID.TID 0000.0001) GM_AdvSeparate = /* Calc Bolus & Euler Adv. separately */
(PID.TID 0000.0001)                   F
(PID.TID 0000.0001)     ;
(PID.TID 0000.0001) GM_ExtraDiag =   /* Tensor Extra Diag (line 1&2) non 0 */
(PID.TID 0000.0001)                   F
(PID.TID 0000.0001)     ;
(PID.TID 0000.0001) GM_isopycK =    /* Background Isopyc. Diffusivity [m^2/s] */
(PID.TID 0000.0001)                 1.000000000000000E+03
(PID.TID 0000.0001)     ;
(PID.TID 0000.0001) GM_skewflx*K =  /* Background GM_SkewFlx Diffusivity [m^2/s] */
(PID.TID 0000.0001)                 1.000000000000000E+03
(PID.TID 0000.0001)     ;
(PID.TID 0000.0001) GM_advec*K =    /* Backg. GM-Advec(=Bolus) Diffusivity [m^2/s]*/
(PID.TID 0000.0001)                 0.000000000000000E+00
(PID.TID 0000.0001)     ;
(PID.TID 0000.0001) GM_Kmin_horiz = /* Minimum Horizontal Diffusivity [m^2/s] */
(PID.TID 0000.0001)                 5.000000000000000E+01
(PID.TID 0000.0001)     ;
(PID.TID 0000.0001) GM_Visbeck_alpha = /* Visbeck alpha coeff. [-] */
(PID.TID 0000.0001)                 0.000000000000000E+00
(PID.TID 0000.0001)     ;
(PID.TID 0000.0001) GM_Small_Number =  /* epsilon used in slope calc */
(PID.TID 0000.0001)                 9.999999999999999E-21
(PID.TID 0000.0001)     ;
(PID.TID 0000.0001) GM_slopeSqCutoff = /* Slope^2 cut-off value */
(PID.TID 0000.0001)                 1.000000000000000E+08
(PID.TID 0000.0001)     ;
(PID.TID 0000.0001) GM_taper_scheme =  /* Type of Tapering/Clipping scheme */
(PID.TID 0000.0001)               'dm95                                    '
(PID.TID 0000.0001)     ;
(PID.TID 0000.0001) GM_maxSlope =  /* Maximum Slope (Tapering/Clipping) */
(PID.TID 0000.0001)                 1.000000000000000E-02
(PID.TID 0000.0001)     ;
(PID.TID 0000.0001) GM_facTrL2dz = /* Minimum Trans.Layer Thick. (factor of dz) */
(PID.TID 0000.0001)                 1.000000000000000E+00
(PID.TID 0000.0001)     ;
(PID.TID 0000.0001) GM_facTrL2ML = /* Max.Trans.Layer Thick. (factor of MxL Depth)*/
(PID.TID 0000.0001)                 5.000000000000000E+00
(PID.TID 0000.0001)     ;
(PID.TID 0000.0001) GM_maxTransLay = /* Maximum Transition Layer Thickness [m] */
(PID.TID 0000.0001)                 5.000000000000000E+02
(PID.TID 0000.0001)     ;
(PID.TID 0000.0001) GM_UseBVP = /* if TRUE => use bvp a la Ferrari et al. (2010) */
(PID.TID 0000.0001)                   F
(PID.TID 0000.0001)     ;
(PID.TID 0000.0001) GM_BVP_ModeNumber = /* Vertical mode number for BVP wave speed */
(PID.TID 0000.0001)                       1
(PID.TID 0000.0001)     ;
(PID.TID 0000.0001) GM_BVP_cMin = /* Minimum wave speed for BVP [m/s] */
(PID.TID 0000.0001)                 1.000000000000000E-01
(PID.TID 0000.0001)     ;
(PID.TID 0000.0001) GM_useSubMeso = /* if TRUE => use Sub-Meso param. (B.Fox-Kemper) */
(PID.TID 0000.0001)                   F
(PID.TID 0000.0001)     ;
(PID.TID 0000.0001) subMeso_Ceff = /* efficiency coeff. of Mixed-Layer Eddies [-] */
(PID.TID 0000.0001)                 7.000000000000001E-02
(PID.TID 0000.0001)     ;
(PID.TID 0000.0001) subMeso_invTau = /* inverse of Sub-Meso mixing time-scale [/s] */
(PID.TID 0000.0001)                 2.000000000000000E-06
(PID.TID 0000.0001)     ;
(PID.TID 0000.0001) subMeso_LfMin = /* minimum length-scale "Lf" [m] */
(PID.TID 0000.0001)                 1.000000000000000E+03
(PID.TID 0000.0001)     ;
(PID.TID 0000.0001) subMeso_Lmax = /* maximum grid-scale length [m] */
(PID.TID 0000.0001)                 1.100000000000000E+05
(PID.TID 0000.0001)     ;
(PID.TID 0000.0001) PTRACERS_CHECK: #define ALLOW_PTRACERS
(PID.TID 0000.0001) PTRACERS_CHECK: updated GAD_OlMinSize=  2  0  1
(PID.TID 0000.0001) // ===================================
(PID.TID 0000.0001) // PTRACERS parameters
(PID.TID 0000.0001) // ===================================
(PID.TID 0000.0001) PTRACERS_numInUse = /* number of tracers */
(PID.TID 0000.0001)                       5
(PID.TID 0000.0001)     ;
(PID.TID 0000.0001) PTRACERS_Iter0 = /* timestep number when tracers are initialized */
(PID.TID 0000.0001)                       0
(PID.TID 0000.0001)     ;
(PID.TID 0000.0001) PTRACERS_startAllTrc =/* all tracers start @ startTime */
(PID.TID 0000.0001)                   T
(PID.TID 0000.0001)     ;
(PID.TID 0000.0001) PTRACERS_addSrelax2EmP =/* add Salt relaxation to EmP */
(PID.TID 0000.0001)                   F
(PID.TID 0000.0001)     ;
(PID.TID 0000.0001) PTRACERS_dTLev =   /* Ptracer timestep ( s ) */
(PID.TID 0000.0001)    15 @  4.320000000000000E+04              /* K =  1: 15 */
(PID.TID 0000.0001)     ;
(PID.TID 0000.0001) PTRACERS_dumpFreq = /* Frequency^-1 for snapshot output (s) */
(PID.TID 0000.0001)                 2.160000000000000E+05
(PID.TID 0000.0001)     ;
(PID.TID 0000.0001) PTRACERS_taveFreq = /* Frequency^-1 for time-Aver. output (s) */
(PID.TID 0000.0001)                 2.160000000000000E+05
(PID.TID 0000.0001)     ;
(PID.TID 0000.0001) PTRACERS_useRecords = /* all tracers in 1 file */
(PID.TID 0000.0001)                   F
(PID.TID 0000.0001)     ;
(PID.TID 0000.0001) PTRACERS_timeave_mnc = /* use MNC for Tave output */
(PID.TID 0000.0001)                   F
(PID.TID 0000.0001)     ;
(PID.TID 0000.0001) PTRACERS_snapshot_mnc = /* use MNC for snapshot output */
(PID.TID 0000.0001)                   F
(PID.TID 0000.0001)     ;
(PID.TID 0000.0001) PTRACERS_pickup_write_mnc = /* use MNC for writing pickups */
(PID.TID 0000.0001)                   F
(PID.TID 0000.0001)     ;
(PID.TID 0000.0001) PTRACERS_pickup_read_mnc = /* use MNC for reading pickups */
(PID.TID 0000.0001)                   F
(PID.TID 0000.0001)     ;
(PID.TID 0000.0001)  -----------------------------------
(PID.TID 0000.0001)  tracer number :    1
(PID.TID 0000.0001) PTRACERS_names = /* Tracer short name */
(PID.TID 0000.0001)               'dic'
(PID.TID 0000.0001)     ;
(PID.TID 0000.0001) PTRACERS_long_names = /* Tracer long name */
(PID.TID 0000.0001)               'Dissolved Inorganic Carbon'
(PID.TID 0000.0001)     ;
(PID.TID 0000.0001) PTRACERS_ioLabel = /* tracer IO Label */
(PID.TID 0000.0001)               '01'
(PID.TID 0000.0001)     ;
(PID.TID 0000.0001) PTRACERS_advScheme = /* Advection Scheme */
(PID.TID 0000.0001)                      77
(PID.TID 0000.0001)     ;
(PID.TID 0000.0001) PTRACERS_SOM_Advection = /* tracer uses SOM advection scheme */
(PID.TID 0000.0001)                   F
(PID.TID 0000.0001)     ;
(PID.TID 0000.0001) PTRACERS_ImplVertAdv = /* implicit vert. advection flag */
(PID.TID 0000.0001)                   F
(PID.TID 0000.0001)     ;
(PID.TID 0000.0001) PTRACERS_diffKh = /* Laplacian Diffusivity */
(PID.TID 0000.0001)                 0.000000000000000E+00
(PID.TID 0000.0001)     ;
(PID.TID 0000.0001) PTRACERS_diffK4 = /* Biharmonic Diffusivity */
(PID.TID 0000.0001)                 0.000000000000000E+00
(PID.TID 0000.0001)     ;
(PID.TID 0000.0001) PTRACERS_diffKrNr = /* Vertical Diffusivity */
(PID.TID 0000.0001)    15 @  3.000000000000000E-05              /* K =  1: 15 */
(PID.TID 0000.0001)     ;
(PID.TID 0000.0001) PTRACERS_useGMRedi = /* apply GM-Redi */
(PID.TID 0000.0001)                   T
(PID.TID 0000.0001)     ;
(PID.TID 0000.0001) PTRACERS_useDWNSLP = /* apply DOWN-SLOPE Flow */
(PID.TID 0000.0001)                   F
(PID.TID 0000.0001)     ;
(PID.TID 0000.0001) PTRACERS_useKPP = /* apply KPP scheme */
(PID.TID 0000.0001)                   F
(PID.TID 0000.0001)     ;
(PID.TID 0000.0001) PTRACERS_ref = /* Reference vertical profile */
(PID.TID 0000.0001)                 2.028200000000000E+00,      /* K =  1 */
(PID.TID 0000.0001)                 2.060900000000000E+00,      /* K =  2 */
(PID.TID 0000.0001)                 2.120600000000000E+00,      /* K =  3 */
(PID.TID 0000.0001)                 2.158100000000000E+00,      /* K =  4 */
(PID.TID 0000.0001)                 2.190400000000000E+00,      /* K =  5 */
(PID.TID 0000.0001)                 2.218800000000000E+00,      /* K =  6 */
(PID.TID 0000.0001)                 2.247400000000000E+00,      /* K =  7 */
(PID.TID 0000.0001)                 2.269900000000000E+00,      /* K =  8 */
(PID.TID 0000.0001)                 2.279200000000000E+00,      /* K =  9 */
(PID.TID 0000.0001)                 2.281400000000000E+00,      /* K = 10 */
(PID.TID 0000.0001)                 2.281500000000000E+00,      /* K = 11 */
(PID.TID 0000.0001)                 2.280600000000000E+00,      /* K = 12 */
(PID.TID 0000.0001)                 2.280000000000000E+00,      /* K = 13 */
(PID.TID 0000.0001)                 2.276000000000000E+00,      /* K = 14 */
(PID.TID 0000.0001)                 2.275800000000000E+00       /* K = 15 */
(PID.TID 0000.0001)     ;
(PID.TID 0000.0001) PTRACERS_EvPrRn =/* tracer conc. in Evap. & Rain */
(PID.TID 0000.0001)                 0.000000000000000E+00
(PID.TID 0000.0001)     ;
(PID.TID 0000.0001)  -----------------------------------
(PID.TID 0000.0001)  tracer number :    2
(PID.TID 0000.0001) PTRACERS_names = /* Tracer short name */
(PID.TID 0000.0001)               'alk'
(PID.TID 0000.0001)     ;
(PID.TID 0000.0001) PTRACERS_long_names = /* Tracer long name */
(PID.TID 0000.0001)               'Alkalinity'
(PID.TID 0000.0001)     ;
(PID.TID 0000.0001) PTRACERS_ioLabel = /* tracer IO Label */
(PID.TID 0000.0001)               '02'
(PID.TID 0000.0001)     ;
(PID.TID 0000.0001) PTRACERS_advScheme = /* Advection Scheme */
(PID.TID 0000.0001)                      77
(PID.TID 0000.0001)     ;
(PID.TID 0000.0001) PTRACERS_SOM_Advection = /* tracer uses SOM advection scheme */
(PID.TID 0000.0001)                   F
(PID.TID 0000.0001)     ;
(PID.TID 0000.0001) PTRACERS_ImplVertAdv = /* implicit vert. advection flag */
(PID.TID 0000.0001)                   F
(PID.TID 0000.0001)     ;
(PID.TID 0000.0001) PTRACERS_diffKh = /* Laplacian Diffusivity */
(PID.TID 0000.0001)                 0.000000000000000E+00
(PID.TID 0000.0001)     ;
(PID.TID 0000.0001) PTRACERS_diffK4 = /* Biharmonic Diffusivity */
(PID.TID 0000.0001)                 0.000000000000000E+00
(PID.TID 0000.0001)     ;
(PID.TID 0000.0001) PTRACERS_diffKrNr = /* Vertical Diffusivity */
(PID.TID 0000.0001)    15 @  3.000000000000000E-05              /* K =  1: 15 */
(PID.TID 0000.0001)     ;
(PID.TID 0000.0001) PTRACERS_useGMRedi = /* apply GM-Redi */
(PID.TID 0000.0001)                   T
(PID.TID 0000.0001)     ;
(PID.TID 0000.0001) PTRACERS_useDWNSLP = /* apply DOWN-SLOPE Flow */
(PID.TID 0000.0001)                   F
(PID.TID 0000.0001)     ;
(PID.TID 0000.0001) PTRACERS_useKPP = /* apply KPP scheme */
(PID.TID 0000.0001)                   F
(PID.TID 0000.0001)     ;
(PID.TID 0000.0001) PTRACERS_ref = /* Reference vertical profile */
(PID.TID 0000.0001)                 2.308600000000000E+00,      /* K =  1 */
(PID.TID 0000.0001)                 2.314900000000000E+00,      /* K =  2 */
(PID.TID 0000.0001)                 2.316400000000000E+00,      /* K =  3 */
(PID.TID 0000.0001)                 2.311200000000000E+00,      /* K =  4 */
(PID.TID 0000.0001)                 2.309800000000000E+00,      /* K =  5 */
(PID.TID 0000.0001)                 2.316000000000000E+00,      /* K =  6 */
(PID.TID 0000.0001)                 2.331300000000000E+00,      /* K =  7 */
(PID.TID 0000.0001)                 2.351700000000000E+00,      /* K =  8 */
(PID.TID 0000.0001)                 2.366700000000000E+00,      /* K =  9 */
(PID.TID 0000.0001)                 2.376100000000000E+00,      /* K = 10 */
(PID.TID 0000.0001)                 2.383200000000000E+00,      /* K = 11 */
(PID.TID 0000.0001)                 2.386200000000000E+00,      /* K = 12 */
(PID.TID 0000.0001)                 2.388100000000000E+00,      /* K = 13 */
(PID.TID 0000.0001)                 2.386300000000000E+00,      /* K = 14 */
(PID.TID 0000.0001)                 2.386700000000000E+00       /* K = 15 */
(PID.TID 0000.0001)     ;
(PID.TID 0000.0001) PTRACERS_EvPrRn =/* tracer conc. in Evap. & Rain */
(PID.TID 0000.0001)                 0.000000000000000E+00
(PID.TID 0000.0001)     ;
(PID.TID 0000.0001)  -----------------------------------
(PID.TID 0000.0001)  tracer number :    3
(PID.TID 0000.0001) PTRACERS_names = /* Tracer short name */
(PID.TID 0000.0001)               'po4'
(PID.TID 0000.0001)     ;
(PID.TID 0000.0001) PTRACERS_long_names = /* Tracer long name */
(PID.TID 0000.0001)               'Phosphate'
(PID.TID 0000.0001)     ;
(PID.TID 0000.0001) PTRACERS_ioLabel = /* tracer IO Label */
(PID.TID 0000.0001)               '03'
(PID.TID 0000.0001)     ;
(PID.TID 0000.0001) PTRACERS_advScheme = /* Advection Scheme */
(PID.TID 0000.0001)                      77
(PID.TID 0000.0001)     ;
(PID.TID 0000.0001) PTRACERS_SOM_Advection = /* tracer uses SOM advection scheme */
(PID.TID 0000.0001)                   F
(PID.TID 0000.0001)     ;
(PID.TID 0000.0001) PTRACERS_ImplVertAdv = /* implicit vert. advection flag */
(PID.TID 0000.0001)                   F
(PID.TID 0000.0001)     ;
(PID.TID 0000.0001) PTRACERS_diffKh = /* Laplacian Diffusivity */
(PID.TID 0000.0001)                 0.000000000000000E+00
(PID.TID 0000.0001)     ;
(PID.TID 0000.0001) PTRACERS_diffK4 = /* Biharmonic Diffusivity */
(PID.TID 0000.0001)                 0.000000000000000E+00
(PID.TID 0000.0001)     ;
(PID.TID 0000.0001) PTRACERS_diffKrNr = /* Vertical Diffusivity */
(PID.TID 0000.0001)    15 @  3.000000000000000E-05              /* K =  1: 15 */
(PID.TID 0000.0001)     ;
(PID.TID 0000.0001) PTRACERS_useGMRedi = /* apply GM-Redi */
(PID.TID 0000.0001)                   T
(PID.TID 0000.0001)     ;
(PID.TID 0000.0001) PTRACERS_useDWNSLP = /* apply DOWN-SLOPE Flow */
(PID.TID 0000.0001)                   F
(PID.TID 0000.0001)     ;
(PID.TID 0000.0001) PTRACERS_useKPP = /* apply KPP scheme */
(PID.TID 0000.0001)                   F
(PID.TID 0000.0001)     ;
(PID.TID 0000.0001) PTRACERS_ref = /* Reference vertical profile */
(PID.TID 0000.0001)                 5.438000000000000E-04,      /* K =  1 */
(PID.TID 0000.0001)                 7.821000000000000E-04,      /* K =  2 */
(PID.TID 0000.0001)                 1.133500000000000E-03,      /* K =  3 */
(PID.TID 0000.0001)                 1.491300000000000E-03,      /* K =  4 */
(PID.TID 0000.0001)                 1.860600000000000E-03,      /* K =  5 */
(PID.TID 0000.0001)                 2.198600000000000E-03,      /* K =  6 */
(PID.TID 0000.0001)                 2.396600000000000E-03,      /* K =  7 */
(PID.TID 0000.0001)                 2.418700000000000E-03,      /* K =  8 */
(PID.TID 0000.0001)                 2.404600000000000E-03,      /* K =  9 */
(PID.TID 0000.0001)                 2.329100000000000E-03,      /* K = 10 */
(PID.TID 0000.0001)                 2.292200000000000E-03,      /* K = 11 */
(PID.TID 0000.0001)                 2.288600000000000E-03,      /* K = 12 */
(PID.TID 0000.0001)                 2.260800000000000E-03,      /* K = 13 */
(PID.TID 0000.0001)                 2.235600000000000E-03,      /* K = 14 */
(PID.TID 0000.0001)                 2.229600000000000E-03       /* K = 15 */
(PID.TID 0000.0001)     ;
(PID.TID 0000.0001) PTRACERS_EvPrRn =/* tracer conc. in Evap. & Rain */
(PID.TID 0000.0001)                 1.234567000000000E+05
(PID.TID 0000.0001)     ;
(PID.TID 0000.0001)  -----------------------------------
(PID.TID 0000.0001)  tracer number :    4
(PID.TID 0000.0001) PTRACERS_names = /* Tracer short name */
(PID.TID 0000.0001)               'dop'
(PID.TID 0000.0001)     ;
(PID.TID 0000.0001) PTRACERS_long_names = /* Tracer long name */
(PID.TID 0000.0001)               'Dissolved Organic Phosphorus'
(PID.TID 0000.0001)     ;
(PID.TID 0000.0001) PTRACERS_ioLabel = /* tracer IO Label */
(PID.TID 0000.0001)               '04'
(PID.TID 0000.0001)     ;
(PID.TID 0000.0001) PTRACERS_advScheme = /* Advection Scheme */
(PID.TID 0000.0001)                      77
(PID.TID 0000.0001)     ;
(PID.TID 0000.0001) PTRACERS_SOM_Advection = /* tracer uses SOM advection scheme */
(PID.TID 0000.0001)                   F
(PID.TID 0000.0001)     ;
(PID.TID 0000.0001) PTRACERS_ImplVertAdv = /* implicit vert. advection flag */
(PID.TID 0000.0001)                   F
(PID.TID 0000.0001)     ;
(PID.TID 0000.0001) PTRACERS_diffKh = /* Laplacian Diffusivity */
(PID.TID 0000.0001)                 0.000000000000000E+00
(PID.TID 0000.0001)     ;
(PID.TID 0000.0001) PTRACERS_diffK4 = /* Biharmonic Diffusivity */
(PID.TID 0000.0001)                 0.000000000000000E+00
(PID.TID 0000.0001)     ;
(PID.TID 0000.0001) PTRACERS_diffKrNr = /* Vertical Diffusivity */
(PID.TID 0000.0001)    15 @  3.000000000000000E-05              /* K =  1: 15 */
(PID.TID 0000.0001)     ;
(PID.TID 0000.0001) PTRACERS_useGMRedi = /* apply GM-Redi */
(PID.TID 0000.0001)                   T
(PID.TID 0000.0001)     ;
(PID.TID 0000.0001) PTRACERS_useDWNSLP = /* apply DOWN-SLOPE Flow */
(PID.TID 0000.0001)                   F
(PID.TID 0000.0001)     ;
(PID.TID 0000.0001) PTRACERS_useKPP = /* apply KPP scheme */
(PID.TID 0000.0001)                   F
(PID.TID 0000.0001)     ;
(PID.TID 0000.0001) PTRACERS_ref = /* Reference vertical profile */
(PID.TID 0000.0001)    15 @  0.000000000000000E+00              /* K =  1: 15 */
(PID.TID 0000.0001)     ;
(PID.TID 0000.0001) PTRACERS_EvPrRn =/* tracer conc. in Evap. & Rain */
(PID.TID 0000.0001)                 1.234567000000000E+05
(PID.TID 0000.0001)     ;
(PID.TID 0000.0001)  -----------------------------------
(PID.TID 0000.0001)  tracer number :    5
(PID.TID 0000.0001) PTRACERS_names = /* Tracer short name */
(PID.TID 0000.0001)               'o2'
(PID.TID 0000.0001)     ;
(PID.TID 0000.0001) PTRACERS_long_names = /* Tracer long name */
(PID.TID 0000.0001)               'Dissolved Oxygen'
(PID.TID 0000.0001)     ;
(PID.TID 0000.0001) PTRACERS_ioLabel = /* tracer IO Label */
(PID.TID 0000.0001)               '05'
(PID.TID 0000.0001)     ;
(PID.TID 0000.0001) PTRACERS_advScheme = /* Advection Scheme */
(PID.TID 0000.0001)                      77
(PID.TID 0000.0001)     ;
(PID.TID 0000.0001) PTRACERS_SOM_Advection = /* tracer uses SOM advection scheme */
(PID.TID 0000.0001)                   F
(PID.TID 0000.0001)     ;
(PID.TID 0000.0001) PTRACERS_ImplVertAdv = /* implicit vert. advection flag */
(PID.TID 0000.0001)                   F
(PID.TID 0000.0001)     ;
(PID.TID 0000.0001) PTRACERS_diffKh = /* Laplacian Diffusivity */
(PID.TID 0000.0001)                 0.000000000000000E+00
(PID.TID 0000.0001)     ;
(PID.TID 0000.0001) PTRACERS_diffK4 = /* Biharmonic Diffusivity */
(PID.TID 0000.0001)                 0.000000000000000E+00
(PID.TID 0000.0001)     ;
(PID.TID 0000.0001) PTRACERS_diffKrNr = /* Vertical Diffusivity */
(PID.TID 0000.0001)    15 @  3.000000000000000E-05              /* K =  1: 15 */
(PID.TID 0000.0001)     ;
(PID.TID 0000.0001) PTRACERS_useGMRedi = /* apply GM-Redi */
(PID.TID 0000.0001)                   T
(PID.TID 0000.0001)     ;
(PID.TID 0000.0001) PTRACERS_useDWNSLP = /* apply DOWN-SLOPE Flow */
(PID.TID 0000.0001)                   F
(PID.TID 0000.0001)     ;
(PID.TID 0000.0001) PTRACERS_useKPP = /* apply KPP scheme */
(PID.TID 0000.0001)                   F
(PID.TID 0000.0001)     ;
(PID.TID 0000.0001) PTRACERS_ref = /* Reference vertical profile */
(PID.TID 0000.0001)                 2.457000000000000E-01,      /* K =  1 */
(PID.TID 0000.0001)                 2.336000000000000E-01,      /* K =  2 */
(PID.TID 0000.0001)                 1.975000000000000E-01,      /* K =  3 */
(PID.TID 0000.0001)                 1.729000000000000E-01,      /* K =  4 */
(PID.TID 0000.0001)                 1.591000000000000E-01,      /* K =  5 */
(PID.TID 0000.0001)                 1.503000000000000E-01,      /* K =  6 */
(PID.TID 0000.0001)                 1.424000000000000E-01,      /* K =  7 */
(PID.TID 0000.0001)                 1.445000000000000E-01,      /* K =  8 */
(PID.TID 0000.0001)                 1.549000000000000E-01,      /* K =  9 */
(PID.TID 0000.0001)                 1.661000000000000E-01,      /* K = 10 */
(PID.TID 0000.0001)                 1.774000000000000E-01,      /* K = 11 */
(PID.TID 0000.0001)                 1.863000000000000E-01,      /* K = 12 */
(PID.TID 0000.0001)                 1.925000000000000E-01,      /* K = 13 */
(PID.TID 0000.0001)                 2.021000000000000E-01,      /* K = 14 */
(PID.TID 0000.0001)                 2.051000000000000E-01       /* K = 15 */
(PID.TID 0000.0001)     ;
(PID.TID 0000.0001) PTRACERS_EvPrRn =/* tracer conc. in Evap. & Rain */
(PID.TID 0000.0001)                 1.234567000000000E+05
(PID.TID 0000.0001)     ;
(PID.TID 0000.0001)  -----------------------------------
(PID.TID 0000.0001) GCHEM_CHECK: #define ALLOW_GCHEM
(PID.TID 0000.0001) CTRL_CHECK: ctrl package
(PID.TID 0000.0001) COST_CHECK: cost package
(PID.TID 0000.0001) GRDCHK_CHECK: grdchk package
(PID.TID 0000.0001) GAD_CHECK: #define ALLOW_GENERIC_ADVDIFF
(PID.TID 0000.0001) // =======================================================
(PID.TID 0000.0001) // Check Model config. (CONFIG_CHECK):
(PID.TID 0000.0001) // CONFIG_CHECK : Normal End
(PID.TID 0000.0001) // =======================================================
(PID.TID 0000.0001) 
(PID.TID 0000.0001)  simulName=>Tutorial Biogeo<
(PID.TID 0000.0001)  nRecords = 123 ; filePrec =  64 ; fileIter =   5184000
(PID.TID 0000.0001)     nDims =   2 , dims:
(PID.TID 0000.0001)    1: 128   1 128
(PID.TID 0000.0001)    2:  64   1  64
(PID.TID 0000.0001)     nFlds =  11 , nFl3D =   8 , fields:
(PID.TID 0000.0001)  >Uvel    < >Vvel    < >Theta   < >Salt    < >GuNm1   < >GvNm1   < >GtNm1   < >GsNm1   < >EtaN    < >dEtaHdt < >EtaH    <
(PID.TID 0000.0001) missingVal=  1.00000000000000E+00 ; nTimRec =   0 , timeList:
(PID.TID 0000.0001) READ_MFLDS_3D_RL: read field: "Uvel    ", #   1 in fldList, rec=   1
(PID.TID 0000.0001) READ_MFLDS_3D_RL: read field: "Vvel    ", #   2 in fldList, rec=   2
(PID.TID 0000.0001) READ_MFLDS_3D_RL: read field: "Theta   ", #   3 in fldList, rec=   3
(PID.TID 0000.0001) READ_MFLDS_3D_RL: read field: "Salt    ", #   4 in fldList, rec=   4
(PID.TID 0000.0001) READ_MFLDS_3D_RL: read field: "GuNm1   ", #   5 in fldList, rec=   5
(PID.TID 0000.0001) READ_MFLDS_3D_RL: read field: "GvNm1   ", #   6 in fldList, rec=   6
(PID.TID 0000.0001) READ_MFLDS_3D_RL: read field: "GtNm1   ", #   7 in fldList, rec=   7
(PID.TID 0000.0001) READ_MFLDS_3D_RL: read field: "GsNm1   ", #   8 in fldList, rec=   8
(PID.TID 0000.0001) READ_MFLDS_3D_RL: read field: "EtaN    ", #   9 in fldList, rec= 121
(PID.TID 0000.0001) READ_MFLDS_CHECK: - normal end ; reset MFLDS file-name: pickup.0005184000
(PID.TID 0000.0001)  simulName=>Tutorial Biogeo<
(PID.TID 0000.0001)  nRecords =   5 ; filePrec =  64 ; fileIter =   5184000
(PID.TID 0000.0001)     nDims =   3 , dims:
(PID.TID 0000.0001)    1: 128   1 128
(PID.TID 0000.0001)    2:  64   1  64
(PID.TID 0000.0001)    3:  15   1  15
(PID.TID 0000.0001)     nFlds =   5 , nFl3D =   0 , fields:
(PID.TID 0000.0001)  >pTr01   < >pTr02   < >pTr03   < >pTr04   < >pTr05   <
(PID.TID 0000.0001) missingVal=  1.00000000000000E+00 ; nTimRec =   0 , timeList:
(PID.TID 0000.0001) READ_MFLDS_3D_RL: read field: "pTr01   ", #   1 in fldList, rec=   1
(PID.TID 0000.0001) READ_MFLDS_3D_RL: read field: "pTr02   ", #   2 in fldList, rec=   2
(PID.TID 0000.0001) READ_MFLDS_3D_RL: read field: "pTr03   ", #   3 in fldList, rec=   3
(PID.TID 0000.0001) READ_MFLDS_3D_RL: read field: "pTr04   ", #   4 in fldList, rec=   4
(PID.TID 0000.0001) READ_MFLDS_3D_RL: read field: "pTr05   ", #   5 in fldList, rec=   5
(PID.TID 0000.0001) READ_MFLDS_CHECK: - normal end ; reset MFLDS file-name: pickup_ptracers.0005184000
 DIC_SURFFORCING_INIT, it=   5184000 : Reading new data, i0,i1=   12    1
 QQ alpha before  9.70000000000000011E-011
(PID.TID 0000.0001) // =======================================================
(PID.TID 0000.0001) // Begin MONITOR dynamic field statistics
(PID.TID 0000.0001) // =======================================================
(PID.TID 0000.0001) %MON time_tsnumber                =               5184000
(PID.TID 0000.0001) %MON time_secondsf                =   2.2394880000000E+11
(PID.TID 0000.0001) %MON dynstat_eta_max              =   9.6649299579287E-01
(PID.TID 0000.0001) %MON dynstat_eta_min              =  -1.4782940696125E+00
(PID.TID 0000.0001) %MON dynstat_eta_mean             =   8.5159854500297E-11
(PID.TID 0000.0001) %MON dynstat_eta_sd               =   5.6496543247928E-01
(PID.TID 0000.0001) %MON dynstat_eta_del2             =   1.1653645924077E-03
(PID.TID 0000.0001) %MON dynstat_uvel_max             =   1.8991955759746E-01
(PID.TID 0000.0001) %MON dynstat_uvel_min             =  -2.3830119785924E-01
(PID.TID 0000.0001) %MON dynstat_uvel_mean            =   1.8631910446830E-03
(PID.TID 0000.0001) %MON dynstat_uvel_sd              =   1.3097544587003E-02
(PID.TID 0000.0001) %MON dynstat_uvel_del2            =   4.9141243596022E-05
(PID.TID 0000.0001) %MON dynstat_vvel_max             =   1.4902607636342E-01
(PID.TID 0000.0001) %MON dynstat_vvel_min             =  -2.1740870222213E-01
(PID.TID 0000.0001) %MON dynstat_vvel_mean            =  -1.6712179506896E-04
(PID.TID 0000.0001) %MON dynstat_vvel_sd              =   7.3032187196596E-03
(PID.TID 0000.0001) %MON dynstat_vvel_del2            =   3.8048380963769E-05
(PID.TID 0000.0001) %MON dynstat_wvel_max             =   5.2278891600425E-05
(PID.TID 0000.0001) %MON dynstat_wvel_min             =  -5.4363646394913E-05
(PID.TID 0000.0001) %MON dynstat_wvel_mean            =   1.8247847362026E-22
(PID.TID 0000.0001) %MON dynstat_wvel_sd              =   2.6044092374234E-06
(PID.TID 0000.0001) %MON dynstat_wvel_del2            =   1.7768952335932E-08
(PID.TID 0000.0001) %MON dynstat_theta_max            =   3.0246498475111E+01
(PID.TID 0000.0001) %MON dynstat_theta_min            =  -2.0000000000000E+00
(PID.TID 0000.0001) %MON dynstat_theta_mean           =   3.8021277862108E+00
(PID.TID 0000.0001) %MON dynstat_theta_sd             =   4.5122422355156E+00
(PID.TID 0000.0001) %MON dynstat_theta_del2           =   2.5949804443761E-03
(PID.TID 0000.0001) %MON dynstat_salt_max             =   3.7556852662021E+01
(PID.TID 0000.0001) %MON dynstat_salt_min             =   3.1484589763615E+01
(PID.TID 0000.0001) %MON dynstat_salt_mean            =   3.4614647727539E+01
(PID.TID 0000.0001) %MON dynstat_salt_sd              =   3.1408724689889E-01
(PID.TID 0000.0001) %MON dynstat_salt_del2            =   4.0546885080523E-04
(PID.TID 0000.0001) %MON forcing_qnet_max             =   4.4937911987305E+02
(PID.TID 0000.0001) %MON forcing_qnet_min             =  -2.0417861938477E+02
(PID.TID 0000.0001) %MON forcing_qnet_mean            =  -1.7498601459148E+01
(PID.TID 0000.0001) %MON forcing_qnet_sd              =   1.1365585619929E+02
(PID.TID 0000.0001) %MON forcing_qnet_del2            =   2.8640506155793E-01
(PID.TID 0000.0001) %MON forcing_qsw_max              =   0.0000000000000E+00
(PID.TID 0000.0001) %MON forcing_qsw_min              =   0.0000000000000E+00
(PID.TID 0000.0001) %MON forcing_qsw_mean             =   0.0000000000000E+00
(PID.TID 0000.0001) %MON forcing_qsw_sd               =   0.0000000000000E+00
(PID.TID 0000.0001) %MON forcing_qsw_del2             =   0.0000000000000E+00
(PID.TID 0000.0001) %MON forcing_empmr_max            =   6.6865915471226E-05
(PID.TID 0000.0001) %MON forcing_empmr_min            =  -1.5018765964214E-04
(PID.TID 0000.0001) %MON forcing_empmr_mean           =   7.7320599494492E-09
(PID.TID 0000.0001) %MON forcing_empmr_sd             =   2.3858729798697E-05
(PID.TID 0000.0001) %MON forcing_empmr_del2           =   1.1192342175733E-07
(PID.TID 0000.0001) %MON forcing_fu_max               =   2.8468748927116E-01
(PID.TID 0000.0001) %MON forcing_fu_min               =  -1.5522694587708E-01
(PID.TID 0000.0001) %MON forcing_fu_mean              =   1.7572056142629E-02
(PID.TID 0000.0001) %MON forcing_fu_sd                =   8.9999224736116E-02
(PID.TID 0000.0001) %MON forcing_fu_del2              =   2.6702947614548E-04
(PID.TID 0000.0001) %MON forcing_fv_max               =   2.1343359351158E-01
(PID.TID 0000.0001) %MON forcing_fv_min               =  -1.7404061555862E-01
(PID.TID 0000.0001) %MON forcing_fv_mean              =  -5.8961451090369E-03
(PID.TID 0000.0001) %MON forcing_fv_sd                =   4.6452039259649E-02
(PID.TID 0000.0001) %MON forcing_fv_del2              =   1.8991860252817E-04
(PID.TID 0000.0001) %MON advcfl_uvel_max              =   3.3371224876845E-02
(PID.TID 0000.0001) %MON advcfl_vvel_max              =   3.0036639306938E-02
(PID.TID 0000.0001) %MON advcfl_wvel_max              =   1.2835232190818E-02
(PID.TID 0000.0001) %MON advcfl_W_hf_max              =   1.5402278628981E-02
(PID.TID 0000.0001) %MON pe_b_mean                    =   4.1138403911517E-04
(PID.TID 0000.0001) %MON ke_max                       =   3.1499047402406E-02
(PID.TID 0000.0001) %MON ke_mean                      =   1.0574476462818E-04
(PID.TID 0000.0001) %MON ke_vol                       =   1.2571476858570E+18
(PID.TID 0000.0001) %MON vort_r_min                   =  -9.2200319326548E-07
(PID.TID 0000.0001) %MON vort_r_max                   =   9.8870203558082E-07
(PID.TID 0000.0001) %MON vort_a_mean                  =  -2.4002453570026E-05
(PID.TID 0000.0001) %MON vort_a_sd                    =   7.3138176910932E-05
(PID.TID 0000.0001) %MON vort_p_mean                  =  -2.8585773838204E-05
(PID.TID 0000.0001) %MON vort_p_sd                    =   1.1453377537423E-04
(PID.TID 0000.0001) %MON surfExpan_theta_mean         =  -2.2011580807865E-07
(PID.TID 0000.0001) %MON surfExpan_salt_mean          =   2.1557170411787E-08
(PID.TID 0000.0001) // =======================================================
(PID.TID 0000.0001) // End MONITOR dynamic field statistics
(PID.TID 0000.0001) // =======================================================
(PID.TID 0000.0001) // =======================================================
(PID.TID 0000.0001) // Begin MONITOR ptracer field statistics
(PID.TID 0000.0001) // =======================================================
(PID.TID 0000.0001) %MON trcstat_ptracer01_max        =   2.4429509648564E+00
(PID.TID 0000.0001) %MON trcstat_ptracer01_min        =   1.6411768585524E+00
(PID.TID 0000.0001) %MON trcstat_ptracer01_mean       =   2.2619456454509E+00
(PID.TID 0000.0001) %MON trcstat_ptracer01_sd         =   1.0331286137289E-01
(PID.TID 0000.0001) %MON trcstat_ptracer01_del2       =   3.5366178405532E-05
(PID.TID 0000.0001) %MON trcstat_ptracer02_max        =   2.5617847262853E+00
(PID.TID 0000.0001) %MON trcstat_ptracer02_min        =   1.9500363505308E+00
(PID.TID 0000.0001) %MON trcstat_ptracer02_mean       =   2.3641949244605E+00
(PID.TID 0000.0001) %MON trcstat_ptracer02_sd         =   4.9629918291403E-02
(PID.TID 0000.0001) %MON trcstat_ptracer02_del2       =   2.3379345129430E-05
(PID.TID 0000.0001) %MON trcstat_ptracer03_max        =   3.2964254616333E-03
(PID.TID 0000.0001) %MON trcstat_ptracer03_min        =   4.8658220611564E-05
(PID.TID 0000.0001) %MON trcstat_ptracer03_mean       =   2.1265729801482E-03
(PID.TID 0000.0001) %MON trcstat_ptracer03_sd         =   6.9838206338730E-04
(PID.TID 0000.0001) %MON trcstat_ptracer03_del2       =   2.2273775194298E-07
(PID.TID 0000.0001) %MON trcstat_ptracer04_max        =   3.0026850002845E-04
(PID.TID 0000.0001) %MON trcstat_ptracer04_min        =  -1.8981224313384E-07
(PID.TID 0000.0001) %MON trcstat_ptracer04_mean       =   5.9486556791158E-06
(PID.TID 0000.0001) %MON trcstat_ptracer04_sd         =   2.6309645059161E-05
(PID.TID 0000.0001) %MON trcstat_ptracer04_del2       =   3.2481489466092E-08
(PID.TID 0000.0001) %MON trcstat_ptracer05_max        =   3.8399706073681E-01
(PID.TID 0000.0001) %MON trcstat_ptracer05_min        =   3.9748290888003E-03
(PID.TID 0000.0001) %MON trcstat_ptracer05_mean       =   1.6196386322261E-01
(PID.TID 0000.0001) %MON trcstat_ptracer05_sd         =   7.3415516730862E-02
(PID.TID 0000.0001) %MON trcstat_ptracer05_del2       =   3.0999411510078E-05
(PID.TID 0000.0001) // =======================================================
(PID.TID 0000.0001) // End MONITOR ptracers field statistics
(PID.TID 0000.0001) // =======================================================
 EXTERNAL_FIELDS_LOAD, it=   5184000 : Reading new data, i0,i1=   12    1 (prev=   12    0 )
 DIC_FIELDS_LOAD, it=   5184000 : Reading new data, i0,i1=   12    1 (prev=   12    0 )
(PID.TID 0000.0001) SOLVE_FOR_PRESSURE: putPmEinXvector =    F
 cg2d: Sum(rhs),rhsMax =  -2.93465216572031E-07  8.32814987068962E+00
(PID.TID 0000.0001)      cg2d_init_res =   1.57216930216624E-02
(PID.TID 0000.0001)      cg2d_iters(min,last) =      -1      23
(PID.TID 0000.0001)      cg2d_last_res =   3.22678361722819E-14
 mean surface dic   1.9723249740641411        34.855624493690975     
 QQ myiter, totcost =      5184001  -149896021875.80466     
(PID.TID 0000.0001) // =======================================================
(PID.TID 0000.0001) // Begin MONITOR dynamic field statistics
(PID.TID 0000.0001) // =======================================================
(PID.TID 0000.0001) %MON time_tsnumber                =               5184001
(PID.TID 0000.0001) %MON time_secondsf                =   2.2394884320000E+11
(PID.TID 0000.0001) %MON dynstat_eta_max              =   9.6608780374678E-01
(PID.TID 0000.0001) %MON dynstat_eta_min              =  -1.4781951473058E+00
(PID.TID 0000.0001) %MON dynstat_eta_mean             =   8.5159828011814E-11
(PID.TID 0000.0001) %MON dynstat_eta_sd               =   5.6493466017731E-01
(PID.TID 0000.0001) %MON dynstat_eta_del2             =   1.1653159796651E-03
(PID.TID 0000.0001) %MON dynstat_uvel_max             =   1.8986984278831E-01
(PID.TID 0000.0001) %MON dynstat_uvel_min             =  -2.3804551025530E-01
(PID.TID 0000.0001) %MON dynstat_uvel_mean            =   1.8634072204829E-03
(PID.TID 0000.0001) %MON dynstat_uvel_sd              =   1.3097550996341E-02
(PID.TID 0000.0001) %MON dynstat_uvel_del2            =   4.9137558374943E-05
(PID.TID 0000.0001) %MON dynstat_vvel_max             =   1.4889942318624E-01
(PID.TID 0000.0001) %MON dynstat_vvel_min             =  -2.1665653370549E-01
(PID.TID 0000.0001) %MON dynstat_vvel_mean            =  -1.6703375043405E-04
(PID.TID 0000.0001) %MON dynstat_vvel_sd              =   7.3020979875237E-03
(PID.TID 0000.0001) %MON dynstat_vvel_del2            =   3.8034542121214E-05
(PID.TID 0000.0001) %MON dynstat_wvel_max             =   5.2263116270432E-05
(PID.TID 0000.0001) %MON dynstat_wvel_min             =  -5.4342054349509E-05
(PID.TID 0000.0001) %MON dynstat_wvel_mean            =   1.2584722318639E-22
(PID.TID 0000.0001) %MON dynstat_wvel_sd              =   2.6038816103993E-06
(PID.TID 0000.0001) %MON dynstat_wvel_del2            =   1.7767516928060E-08
(PID.TID 0000.0001) %MON dynstat_theta_max            =   3.0252024360087E+01
(PID.TID 0000.0001) %MON dynstat_theta_min            =  -2.0087829103125E+00
(PID.TID 0000.0001) %MON dynstat_theta_mean           =   3.8021757020518E+00
(PID.TID 0000.0001) %MON dynstat_theta_sd             =   4.5122940125427E+00
(PID.TID 0000.0001) %MON dynstat_theta_del2           =   2.5912758790261E-03
(PID.TID 0000.0001) %MON dynstat_salt_max             =   3.7556636309538E+01
(PID.TID 0000.0001) %MON dynstat_salt_min             =   3.1485112681190E+01
(PID.TID 0000.0001) %MON dynstat_salt_mean            =   3.4614648140808E+01
(PID.TID 0000.0001) %MON dynstat_salt_sd              =   3.1408598979457E-01
(PID.TID 0000.0001) %MON dynstat_salt_del2            =   4.0466280959698E-04
(PID.TID 0000.0001) %MON forcing_qnet_max             =   4.5173381042480E+02
(PID.TID 0000.0001) %MON forcing_qnet_min             =  -2.1320401000977E+02
(PID.TID 0000.0001) %MON forcing_qnet_mean            =  -1.7651133920904E+01
(PID.TID 0000.0001) %MON forcing_qnet_sd              =   1.1600054643933E+02
(PID.TID 0000.0001) %MON forcing_qnet_del2            =   2.7307867599176E-01
(PID.TID 0000.0001) %MON forcing_qsw_max              =   0.0000000000000E+00
(PID.TID 0000.0001) %MON forcing_qsw_min              =   0.0000000000000E+00
(PID.TID 0000.0001) %MON forcing_qsw_mean             =   0.0000000000000E+00
(PID.TID 0000.0001) %MON forcing_qsw_sd               =   0.0000000000000E+00
(PID.TID 0000.0001) %MON forcing_qsw_del2             =   0.0000000000000E+00
(PID.TID 0000.0001) %MON forcing_empmr_max            =   6.6865915471226E-05
(PID.TID 0000.0001) %MON forcing_empmr_min            =  -1.5018765964214E-04
(PID.TID 0000.0001) %MON forcing_empmr_mean           =   7.7320599494492E-09
(PID.TID 0000.0001) %MON forcing_empmr_sd             =   2.3858729798697E-05
(PID.TID 0000.0001) %MON forcing_empmr_del2           =   1.1192342175733E-07
(PID.TID 0000.0001) %MON forcing_fu_max               =   2.6936699450016E-01
(PID.TID 0000.0001) %MON forcing_fu_min               =  -1.5727265179157E-01
(PID.TID 0000.0001) %MON forcing_fu_mean              =   1.7848029829239E-02
(PID.TID 0000.0001) %MON forcing_fu_sd                =   8.9618937726443E-02
(PID.TID 0000.0001) %MON forcing_fu_del2              =   2.4788145916980E-04
(PID.TID 0000.0001) %MON forcing_fv_max               =   1.9744335860014E-01
(PID.TID 0000.0001) %MON forcing_fv_min               =  -1.5944199264050E-01
(PID.TID 0000.0001) %MON forcing_fv_mean              =  -6.4503818001955E-03
(PID.TID 0000.0001) %MON forcing_fv_sd                =   4.4276273939354E-02
(PID.TID 0000.0001) %MON forcing_fv_del2              =   1.7990220506047E-04
(PID.TID 0000.0001) %MON advcfl_uvel_max              =   3.3371654181694E-02
(PID.TID 0000.0001) %MON advcfl_vvel_max              =   2.9932721597106E-02
(PID.TID 0000.0001) %MON advcfl_wvel_max              =   1.2657031816595E-02
(PID.TID 0000.0001) %MON advcfl_W_hf_max              =   1.5188438179914E-02
(PID.TID 0000.0001) %MON pe_b_mean                    =   4.1133922614647E-04
(PID.TID 0000.0001) %MON ke_max                       =   3.1404681836338E-02
(PID.TID 0000.0001) %MON ke_mean                      =   1.0573768650851E-04
(PID.TID 0000.0001) %MON ke_vol                       =   1.2571476858570E+18
(PID.TID 0000.0001) %MON vort_r_min                   =  -9.2105992894185E-07
(PID.TID 0000.0001) %MON vort_r_max                   =   9.8659325221036E-07
(PID.TID 0000.0001) %MON vort_a_mean                  =  -2.4002453570025E-05
(PID.TID 0000.0001) %MON vort_a_sd                    =   7.3138177038012E-05
(PID.TID 0000.0001) %MON vort_p_mean                  =  -2.8585773838203E-05
(PID.TID 0000.0001) %MON vort_p_sd                    =   1.1453377510641E-04
(PID.TID 0000.0001) %MON surfExpan_theta_mean         =  -2.1389795113069E-07
(PID.TID 0000.0001) %MON surfExpan_salt_mean          =   2.1483419577326E-08
(PID.TID 0000.0001) // =======================================================
(PID.TID 0000.0001) // End MONITOR dynamic field statistics
(PID.TID 0000.0001) // =======================================================
(PID.TID 0000.0001) // =======================================================
(PID.TID 0000.0001) // Begin MONITOR ptracer field statistics
(PID.TID 0000.0001) // =======================================================
(PID.TID 0000.0001) %MON trcstat_ptracer01_max        =   2.4429509986307E+00
(PID.TID 0000.0001) %MON trcstat_ptracer01_min        =   1.6411908735044E+00
(PID.TID 0000.0001) %MON trcstat_ptracer01_mean       =   2.2619453145379E+00
(PID.TID 0000.0001) %MON trcstat_ptracer01_sd         =   1.0331376656049E-01
(PID.TID 0000.0001) %MON trcstat_ptracer01_del2       =   3.5355238267621E-05
(PID.TID 0000.0001) %MON trcstat_ptracer02_max        =   2.5618061423435E+00
(PID.TID 0000.0001) %MON trcstat_ptracer02_min        =   1.9500678725056E+00
(PID.TID 0000.0001) %MON trcstat_ptracer02_mean       =   2.3641949745315E+00
(PID.TID 0000.0001) %MON trcstat_ptracer02_sd         =   4.9630095280228E-02
(PID.TID 0000.0001) %MON trcstat_ptracer02_del2       =   2.3362652061982E-05
(PID.TID 0000.0001) %MON trcstat_ptracer03_max        =   3.2964244076203E-03
(PID.TID 0000.0001) %MON trcstat_ptracer03_min        =   4.8598610945814E-05
(PID.TID 0000.0001) %MON trcstat_ptracer03_mean       =   2.1265711400384E-03
(PID.TID 0000.0001) %MON trcstat_ptracer03_sd         =   6.9838569638277E-04
(PID.TID 0000.0001) %MON trcstat_ptracer03_del2       =   2.2267380811568E-07
(PID.TID 0000.0001) %MON trcstat_ptracer04_max        =   3.0027248693794E-04
(PID.TID 0000.0001) %MON trcstat_ptracer04_min        =  -1.8980967918909E-07
(PID.TID 0000.0001) %MON trcstat_ptracer04_mean       =   5.9503219132099E-06
(PID.TID 0000.0001) %MON trcstat_ptracer04_sd         =   2.6320157313319E-05
(PID.TID 0000.0001) %MON trcstat_ptracer04_del2       =   3.2333011167279E-08
(PID.TID 0000.0001) %MON trcstat_ptracer05_max        =   3.8407203837397E-01
(PID.TID 0000.0001) %MON trcstat_ptracer05_min        =   3.9791810357998E-03
(PID.TID 0000.0001) %MON trcstat_ptracer05_mean       =   1.6196347937076E-01
(PID.TID 0000.0001) %MON trcstat_ptracer05_sd         =   7.3415102424305E-02
(PID.TID 0000.0001) %MON trcstat_ptracer05_del2       =   3.0949647818411E-05
(PID.TID 0000.0001) // =======================================================
(PID.TID 0000.0001) // End MONITOR ptracers field statistics
(PID.TID 0000.0001) // =======================================================
 cg2d: Sum(rhs),rhsMax =  -2.93547174123887E-07  8.32580875881018E+00
(PID.TID 0000.0001)      cg2d_init_res =   1.54884724297822E-02
(PID.TID 0000.0001)      cg2d_iters(min,last) =      -1      23
(PID.TID 0000.0001)      cg2d_last_res =   3.15646026989607E-14
 mean surface dic   1.9723041038777025        34.855731590862938     
 QQ myiter, totcost =      5184002  -302787620551.21387     
(PID.TID 0000.0001) // =======================================================
(PID.TID 0000.0001) // Begin MONITOR dynamic field statistics
(PID.TID 0000.0001) // =======================================================
(PID.TID 0000.0001) %MON time_tsnumber                =               5184002
(PID.TID 0000.0001) %MON time_secondsf                =   2.2394888640000E+11
(PID.TID 0000.0001) %MON dynstat_eta_max              =   9.6565856693266E-01
(PID.TID 0000.0001) %MON dynstat_eta_min              =  -1.4781022942954E+00
(PID.TID 0000.0001) %MON dynstat_eta_mean             =   8.5160069246209E-11
(PID.TID 0000.0001) %MON dynstat_eta_sd               =   5.6490413443238E-01
(PID.TID 0000.0001) %MON dynstat_eta_del2             =   1.1652783790709E-03
(PID.TID 0000.0001) %MON dynstat_uvel_max             =   1.9004714332921E-01
(PID.TID 0000.0001) %MON dynstat_uvel_min             =  -2.3778600413630E-01
(PID.TID 0000.0001) %MON dynstat_uvel_mean            =   1.8636308091424E-03
(PID.TID 0000.0001) %MON dynstat_uvel_sd              =   1.3097607010952E-02
(PID.TID 0000.0001) %MON dynstat_uvel_del2            =   4.9135070931377E-05
(PID.TID 0000.0001) %MON dynstat_vvel_max             =   1.4875407193345E-01
(PID.TID 0000.0001) %MON dynstat_vvel_min             =  -2.1589246716530E-01
(PID.TID 0000.0001) %MON dynstat_vvel_mean            =  -1.6695646960755E-04
(PID.TID 0000.0001) %MON dynstat_vvel_sd              =   7.3009759115415E-03
(PID.TID 0000.0001) %MON dynstat_vvel_del2            =   3.8019771131007E-05
(PID.TID 0000.0001) %MON dynstat_wvel_max             =   5.2143018492739E-05
(PID.TID 0000.0001) %MON dynstat_wvel_min             =  -5.4367512545507E-05
(PID.TID 0000.0001) %MON dynstat_wvel_mean            =  -8.8093056230470E-23
(PID.TID 0000.0001) %MON dynstat_wvel_sd              =   2.6028453872059E-06
(PID.TID 0000.0001) %MON dynstat_wvel_del2            =   1.7752683322448E-08
(PID.TID 0000.0001) %MON dynstat_theta_max            =   3.0257430999264E+01
(PID.TID 0000.0001) %MON dynstat_theta_min            =  -2.0143263475734E+00
(PID.TID 0000.0001) %MON dynstat_theta_mean           =   3.8022241067970E+00
(PID.TID 0000.0001) %MON dynstat_theta_sd             =   4.5123461508017E+00
(PID.TID 0000.0001) %MON dynstat_theta_del2           =   2.5956847911533E-03
(PID.TID 0000.0001) %MON dynstat_salt_max             =   3.7556410862780E+01
(PID.TID 0000.0001) %MON dynstat_salt_min             =   3.1485686574071E+01
(PID.TID 0000.0001) %MON dynstat_salt_mean            =   3.4614648582893E+01
(PID.TID 0000.0001) %MON dynstat_salt_sd              =   3.1408394833000E-01
(PID.TID 0000.0001) %MON dynstat_salt_del2            =   4.0538025502658E-04
(PID.TID 0000.0001) %MON forcing_qnet_max             =   4.5165532073975E+02
(PID.TID 0000.0001) %MON forcing_qnet_min             =  -2.1277729593913E+02
(PID.TID 0000.0001) %MON forcing_qnet_mean            =  -1.7646049505512E+01
(PID.TID 0000.0001) %MON forcing_qnet_sd              =   1.1589852404138E+02
(PID.TID 0000.0001) %MON forcing_qnet_del2            =   2.7316938140193E-01
(PID.TID 0000.0001) %MON forcing_qsw_max              =   0.0000000000000E+00
(PID.TID 0000.0001) %MON forcing_qsw_min              =   0.0000000000000E+00
(PID.TID 0000.0001) %MON forcing_qsw_mean             =   0.0000000000000E+00
(PID.TID 0000.0001) %MON forcing_qsw_sd               =   0.0000000000000E+00
(PID.TID 0000.0001) %MON forcing_qsw_del2             =   0.0000000000000E+00
(PID.TID 0000.0001) %MON forcing_empmr_max            =   6.6865915471226E-05
(PID.TID 0000.0001) %MON forcing_empmr_min            =  -1.5018765964214E-04
(PID.TID 0000.0001) %MON forcing_empmr_mean           =   7.7320599494492E-09
(PID.TID 0000.0001) %MON forcing_empmr_sd             =   2.3858729798697E-05
(PID.TID 0000.0001) %MON forcing_empmr_del2           =   1.1192342175733E-07
(PID.TID 0000.0001) %MON forcing_fu_max               =   2.6912787457307E-01
(PID.TID 0000.0001) %MON forcing_fu_min               =  -1.5720446159442E-01
(PID.TID 0000.0001) %MON forcing_fu_mean              =   1.7838830706352E-02
(PID.TID 0000.0001) %MON forcing_fu_sd                =   8.9610308535003E-02
(PID.TID 0000.0001) %MON forcing_fu_del2              =   2.4814768150805E-04
(PID.TID 0000.0001) %MON forcing_fv_max               =   1.9778054629763E-01
(PID.TID 0000.0001) %MON forcing_fv_min               =  -1.5953998118639E-01
(PID.TID 0000.0001) %MON forcing_fv_mean              =  -6.4319072438235E-03
(PID.TID 0000.0001) %MON forcing_fv_sd                =   4.4324355939290E-02
(PID.TID 0000.0001) %MON forcing_fv_del2              =   1.7988590232348E-04
(PID.TID 0000.0001) %MON advcfl_uvel_max              =   3.3375202055498E-02
(PID.TID 0000.0001) %MON advcfl_vvel_max              =   2.9827160086277E-02
(PID.TID 0000.0001) %MON advcfl_wvel_max              =   1.2477500621398E-02
(PID.TID 0000.0001) %MON advcfl_W_hf_max              =   1.4973000745678E-02
(PID.TID 0000.0001) %MON pe_b_mean                    =   4.1129477464459E-04
(PID.TID 0000.0001) %MON ke_max                       =   3.1309359873306E-02
(PID.TID 0000.0001) %MON ke_mean                      =   1.0573121822247E-04
(PID.TID 0000.0001) %MON ke_vol                       =   1.2571476858570E+18
(PID.TID 0000.0001) %MON vort_r_min                   =  -9.1999071593858E-07
(PID.TID 0000.0001) %MON vort_r_max                   =   9.8446191346542E-07
(PID.TID 0000.0001) %MON vort_a_mean                  =  -2.4002453570025E-05
(PID.TID 0000.0001) %MON vort_a_sd                    =   7.3138177167611E-05
(PID.TID 0000.0001) %MON vort_p_mean                  =  -2.8585773838203E-05
(PID.TID 0000.0001) %MON vort_p_sd                    =   1.1453377492787E-04
(PID.TID 0000.0001) %MON surfExpan_theta_mean         =  -2.0990580761132E-07
(PID.TID 0000.0001) %MON surfExpan_salt_mean          =   2.1109399686436E-08
(PID.TID 0000.0001) // =======================================================
(PID.TID 0000.0001) // End MONITOR dynamic field statistics
(PID.TID 0000.0001) // =======================================================
(PID.TID 0000.0001) // =======================================================
(PID.TID 0000.0001) // Begin MONITOR ptracer field statistics
(PID.TID 0000.0001) // =======================================================
(PID.TID 0000.0001) %MON trcstat_ptracer01_max        =   2.4429510307968E+00
(PID.TID 0000.0001) %MON trcstat_ptracer01_min        =   1.6411951560635E+00
(PID.TID 0000.0001) %MON trcstat_ptracer01_mean       =   2.2619449830129E+00
(PID.TID 0000.0001) %MON trcstat_ptracer01_sd         =   1.0331467502918E-01
(PID.TID 0000.0001) %MON trcstat_ptracer01_del2       =   3.5356639218427E-05
(PID.TID 0000.0001) %MON trcstat_ptracer02_max        =   2.5618287481729E+00
(PID.TID 0000.0001) %MON trcstat_ptracer02_min        =   1.9500882727805E+00
(PID.TID 0000.0001) %MON trcstat_ptracer02_mean       =   2.3641950259513E+00
(PID.TID 0000.0001) %MON trcstat_ptracer02_sd         =   4.9630268507625E-02
(PID.TID 0000.0001) %MON trcstat_ptracer02_del2       =   2.3367336442142E-05
(PID.TID 0000.0001) %MON trcstat_ptracer03_max        =   3.2964233253660E-03
(PID.TID 0000.0001) %MON trcstat_ptracer03_min        =   4.8539361345249E-05
(PID.TID 0000.0001) %MON trcstat_ptracer03_mean       =   2.1265693033466E-03
(PID.TID 0000.0001) %MON trcstat_ptracer03_sd         =   6.9838932227518E-04
(PID.TID 0000.0001) %MON trcstat_ptracer03_del2       =   2.2279862988032E-07
(PID.TID 0000.0001) %MON trcstat_ptracer04_max        =   3.0027669286638E-04
(PID.TID 0000.0001) %MON trcstat_ptracer04_min        =  -1.8980394734935E-07
(PID.TID 0000.0001) %MON trcstat_ptracer04_mean       =   5.9519846314966E-06
(PID.TID 0000.0001) %MON trcstat_ptracer04_sd         =   2.6330591407861E-05
(PID.TID 0000.0001) %MON trcstat_ptracer04_del2       =   3.2491388948861E-08
(PID.TID 0000.0001) %MON trcstat_ptracer05_max        =   3.8414572824003E-01
(PID.TID 0000.0001) %MON trcstat_ptracer05_min        =   3.9791882618622E-03
(PID.TID 0000.0001) %MON trcstat_ptracer05_mean       =   1.6196311219075E-01
(PID.TID 0000.0001) %MON trcstat_ptracer05_sd         =   7.3414677812221E-02
(PID.TID 0000.0001) %MON trcstat_ptracer05_del2       =   3.1016960555826E-05
(PID.TID 0000.0001) // =======================================================
(PID.TID 0000.0001) // End MONITOR ptracers field statistics
(PID.TID 0000.0001) // =======================================================
 cg2d: Sum(rhs),rhsMax =  -2.93677626217459E-07  8.32215434141113E+00
(PID.TID 0000.0001)      cg2d_init_res =   1.58601170893717E-02
(PID.TID 0000.0001)      cg2d_iters(min,last) =      -1      23
(PID.TID 0000.0001)      cg2d_last_res =   3.16339676330542E-14
 mean surface dic   1.9722740564988293        34.855734951310524     
 QQ myiter, totcost =      5184003  -454258131366.61536     
(PID.TID 0000.0001) // =======================================================
(PID.TID 0000.0001) // Begin MONITOR dynamic field statistics
(PID.TID 0000.0001) // =======================================================
(PID.TID 0000.0001) %MON time_tsnumber                =               5184003
(PID.TID 0000.0001) %MON time_secondsf                =   2.2394892960000E+11
(PID.TID 0000.0001) %MON dynstat_eta_max              =   9.6529985804959E-01
(PID.TID 0000.0001) %MON dynstat_eta_min              =  -1.4780163114369E+00
(PID.TID 0000.0001) %MON dynstat_eta_mean             =   8.5159533800455E-11
(PID.TID 0000.0001) %MON dynstat_eta_sd               =   5.6487381275097E-01
(PID.TID 0000.0001) %MON dynstat_eta_del2             =   1.1652634757813E-03
(PID.TID 0000.0001) %MON dynstat_uvel_max             =   1.9020934783721E-01
(PID.TID 0000.0001) %MON dynstat_uvel_min             =  -2.3752271813675E-01
(PID.TID 0000.0001) %MON dynstat_uvel_mean            =   1.8638454938671E-03
(PID.TID 0000.0001) %MON dynstat_uvel_sd              =   1.3097690129492E-02
(PID.TID 0000.0001) %MON dynstat_uvel_del2            =   4.9132096928854E-05
(PID.TID 0000.0001) %MON dynstat_vvel_max             =   1.4859031435714E-01
(PID.TID 0000.0001) %MON dynstat_vvel_min             =  -2.1511663354344E-01
(PID.TID 0000.0001) %MON dynstat_vvel_mean            =  -1.6687520215518E-04
(PID.TID 0000.0001) %MON dynstat_vvel_sd              =   7.2998952446945E-03
(PID.TID 0000.0001) %MON dynstat_vvel_del2            =   3.8005988770613E-05
(PID.TID 0000.0001) %MON dynstat_wvel_max             =   5.2043732569891E-05
(PID.TID 0000.0001) %MON dynstat_wvel_min             =  -5.4399960047580E-05
(PID.TID 0000.0001) %MON dynstat_wvel_mean            =  -5.6631250433874E-23
(PID.TID 0000.0001) %MON dynstat_wvel_sd              =   2.6017662411065E-06
(PID.TID 0000.0001) %MON dynstat_wvel_del2            =   1.7736709604175E-08
(PID.TID 0000.0001) %MON dynstat_theta_max            =   3.0262717384777E+01
(PID.TID 0000.0001) %MON dynstat_theta_min            =  -2.0198616343358E+00
(PID.TID 0000.0001) %MON dynstat_theta_mean           =   3.8022721322930E+00
(PID.TID 0000.0001) %MON dynstat_theta_sd             =   4.5124001294325E+00
(PID.TID 0000.0001) %MON dynstat_theta_del2           =   2.5965732055678E-03
(PID.TID 0000.0001) %MON dynstat_salt_max             =   3.7556176017514E+01
(PID.TID 0000.0001) %MON dynstat_salt_min             =   3.1486276863215E+01
(PID.TID 0000.0001) %MON dynstat_salt_mean            =   3.4614649012078E+01
(PID.TID 0000.0001) %MON dynstat_salt_sd              =   3.1408207305048E-01
(PID.TID 0000.0001) %MON dynstat_salt_del2            =   4.0564014926782E-04
(PID.TID 0000.0001) %MON forcing_qnet_max             =   4.5157683105469E+02
(PID.TID 0000.0001) %MON forcing_qnet_min             =  -2.1235058186849E+02
(PID.TID 0000.0001) %MON forcing_qnet_mean            =  -1.7640965090120E+01
(PID.TID 0000.0001) %MON forcing_qnet_sd              =   1.1579811205148E+02
(PID.TID 0000.0001) %MON forcing_qnet_del2            =   2.7328516516788E-01
(PID.TID 0000.0001) %MON forcing_qsw_max              =   0.0000000000000E+00
(PID.TID 0000.0001) %MON forcing_qsw_min              =   0.0000000000000E+00
(PID.TID 0000.0001) %MON forcing_qsw_mean             =   0.0000000000000E+00
(PID.TID 0000.0001) %MON forcing_qsw_sd               =   0.0000000000000E+00
(PID.TID 0000.0001) %MON forcing_qsw_del2             =   0.0000000000000E+00
(PID.TID 0000.0001) %MON forcing_empmr_max            =   6.6865915471226E-05
(PID.TID 0000.0001) %MON forcing_empmr_min            =  -1.5018765964214E-04
(PID.TID 0000.0001) %MON forcing_empmr_mean           =   7.7320599494492E-09
(PID.TID 0000.0001) %MON forcing_empmr_sd             =   2.3858729798697E-05
(PID.TID 0000.0001) %MON forcing_empmr_del2           =   1.1192342175733E-07
(PID.TID 0000.0001) %MON forcing_fu_max               =   2.6907762686412E-01
(PID.TID 0000.0001) %MON forcing_fu_min               =  -1.5713627139727E-01
(PID.TID 0000.0001) %MON forcing_fu_mean              =   1.7829631583465E-02
(PID.TID 0000.0001) %MON forcing_fu_sd                =   8.9603149949656E-02
(PID.TID 0000.0001) %MON forcing_fu_del2              =   2.4844090700074E-04
(PID.TID 0000.0001) %MON forcing_fv_max               =   1.9811773399512E-01
(PID.TID 0000.0001) %MON forcing_fv_min               =  -1.5963796973228E-01
(PID.TID 0000.0001) %MON forcing_fv_mean              =  -6.4134326874516E-03
(PID.TID 0000.0001) %MON forcing_fv_sd                =   4.4374188740913E-02
(PID.TID 0000.0001) %MON forcing_fv_del2              =   1.7989439238480E-04
(PID.TID 0000.0001) %MON advcfl_uvel_max              =   3.3381791531320E-02
(PID.TID 0000.0001) %MON advcfl_vvel_max              =   2.9719972865049E-02
(PID.TID 0000.0001) %MON advcfl_wvel_max              =   1.2296695785580E-02
(PID.TID 0000.0001) %MON advcfl_W_hf_max              =   1.4756034942696E-02
(PID.TID 0000.0001) %MON pe_b_mean                    =   4.1125062267732E-04
(PID.TID 0000.0001) %MON ke_max                       =   3.1213093465428E-02
(PID.TID 0000.0001) %MON ke_mean                      =   1.0572534231216E-04
(PID.TID 0000.0001) %MON ke_vol                       =   1.2571476858570E+18
(PID.TID 0000.0001) %MON vort_r_min                   =  -9.1879697323743E-07
(PID.TID 0000.0001) %MON vort_r_max                   =   9.8230803779251E-07
(PID.TID 0000.0001) %MON vort_a_mean                  =  -2.4002453570026E-05
(PID.TID 0000.0001) %MON vort_a_sd                    =   7.3138177295610E-05
(PID.TID 0000.0001) %MON vort_p_mean                  =  -2.8585773838204E-05
(PID.TID 0000.0001) %MON vort_p_sd                    =   1.1453377470486E-04
(PID.TID 0000.0001) %MON surfExpan_theta_mean         =  -2.0416464644475E-07
(PID.TID 0000.0001) %MON surfExpan_salt_mean          =   2.0981452663597E-08
(PID.TID 0000.0001) // =======================================================
(PID.TID 0000.0001) // End MONITOR dynamic field statistics
(PID.TID 0000.0001) // =======================================================
(PID.TID 0000.0001) // =======================================================
(PID.TID 0000.0001) // Begin MONITOR ptracer field statistics
(PID.TID 0000.0001) // =======================================================
(PID.TID 0000.0001) %MON trcstat_ptracer01_max        =   2.4429510614628E+00
(PID.TID 0000.0001) %MON trcstat_ptracer01_min        =   1.6411897666775E+00
(PID.TID 0000.0001) %MON trcstat_ptracer01_mean       =   2.2619446531658E+00
(PID.TID 0000.0001) %MON trcstat_ptracer01_sd         =   1.0331557638473E-01
(PID.TID 0000.0001) %MON trcstat_ptracer01_del2       =   3.5359020319244E-05
(PID.TID 0000.0001) %MON trcstat_ptracer02_max        =   2.5618530328765E+00
(PID.TID 0000.0001) %MON trcstat_ptracer02_min        =   1.9500976226298E+00
(PID.TID 0000.0001) %MON trcstat_ptracer02_mean       =   2.3641950771946E+00
(PID.TID 0000.0001) %MON trcstat_ptracer02_sd         =   4.9630443352952E-02
(PID.TID 0000.0001) %MON trcstat_ptracer02_del2       =   2.3358906382770E-05
(PID.TID 0000.0001) %MON trcstat_ptracer03_max        =   3.2964222168281E-03
(PID.TID 0000.0001) %MON trcstat_ptracer03_min        =   4.8480470716173E-05
(PID.TID 0000.0001) %MON trcstat_ptracer03_mean       =   2.1265674713761E-03
(PID.TID 0000.0001) %MON trcstat_ptracer03_sd         =   6.9839290649049E-04
(PID.TID 0000.0001) %MON trcstat_ptracer03_del2       =   2.2293946541934E-07
(PID.TID 0000.0001) %MON trcstat_ptracer04_max        =   3.0028113167967E-04
(PID.TID 0000.0001) %MON trcstat_ptracer04_min        =  -1.8979514296815E-07
(PID.TID 0000.0001) %MON trcstat_ptracer04_mean       =   5.9536431559580E-06
(PID.TID 0000.0001) %MON trcstat_ptracer04_sd         =   2.6340909867846E-05
(PID.TID 0000.0001) %MON trcstat_ptracer04_del2       =   3.2656835131358E-08
(PID.TID 0000.0001) %MON trcstat_ptracer05_max        =   3.8421816840994E-01
(PID.TID 0000.0001) %MON trcstat_ptracer05_min        =   3.9791950334416E-03
(PID.TID 0000.0001) %MON trcstat_ptracer05_mean       =   1.6196274781431E-01
(PID.TID 0000.0001) %MON trcstat_ptracer05_sd         =   7.3414261501617E-02
(PID.TID 0000.0001) %MON trcstat_ptracer05_del2       =   3.1030705141409E-05
(PID.TID 0000.0001) // =======================================================
(PID.TID 0000.0001) // End MONITOR ptracers field statistics
(PID.TID 0000.0001) // =======================================================
 cg2d: Sum(rhs),rhsMax =  -2.93793327443836E-07  8.31886491394280E+00
(PID.TID 0000.0001)      cg2d_init_res =   1.54860730641446E-02
(PID.TID 0000.0001)      cg2d_iters(min,last) =      -1      23
(PID.TID 0000.0001)      cg2d_last_res =   3.09074311305297E-14
 mean surface dic   1.9722438449622262        34.855719155302666     
 QQ myiter, totcost =      5184004  -605804087721.18628     
(PID.TID 0000.0001) // =======================================================
(PID.TID 0000.0001) // Begin MONITOR dynamic field statistics
(PID.TID 0000.0001) // =======================================================
(PID.TID 0000.0001) %MON time_tsnumber                =               5184004
(PID.TID 0000.0001) %MON time_secondsf                =   2.2394897280000E+11
(PID.TID 0000.0001) %MON dynstat_eta_max              =   9.6492668904938E-01
(PID.TID 0000.0001) %MON dynstat_eta_min              =  -1.4779318832190E+00
(PID.TID 0000.0001) %MON dynstat_eta_mean             =   8.5159772196798E-11
(PID.TID 0000.0001) %MON dynstat_eta_sd               =   5.6484367066590E-01
(PID.TID 0000.0001) %MON dynstat_eta_del2             =   1.1652313477922E-03
(PID.TID 0000.0001) %MON dynstat_uvel_max             =   1.9035664475620E-01
(PID.TID 0000.0001) %MON dynstat_uvel_min             =  -2.3725569210148E-01
(PID.TID 0000.0001) %MON dynstat_uvel_mean            =   1.8640646220033E-03
(PID.TID 0000.0001) %MON dynstat_uvel_sd              =   1.3097815644601E-02
(PID.TID 0000.0001) %MON dynstat_uvel_del2            =   4.9129647935826E-05
(PID.TID 0000.0001) %MON dynstat_vvel_max             =   1.4840844207928E-01
(PID.TID 0000.0001) %MON dynstat_vvel_min             =  -2.1432916338298E-01
(PID.TID 0000.0001) %MON dynstat_vvel_mean            =  -1.6679827103787E-04
(PID.TID 0000.0001) %MON dynstat_vvel_sd              =   7.2988339998843E-03
(PID.TID 0000.0001) %MON dynstat_vvel_del2            =   3.7991999499960E-05
(PID.TID 0000.0001) %MON dynstat_wvel_max             =   5.1930641534500E-05
(PID.TID 0000.0001) %MON dynstat_wvel_min             =  -5.4449479089015E-05
(PID.TID 0000.0001) %MON dynstat_wvel_mean            =   1.1955486202707E-22
(PID.TID 0000.0001) %MON dynstat_wvel_sd              =   2.6005838050257E-06
(PID.TID 0000.0001) %MON dynstat_wvel_del2            =   1.7719568188131E-08
(PID.TID 0000.0001) %MON dynstat_theta_max            =   3.0267882386356E+01
(PID.TID 0000.0001) %MON dynstat_theta_min            =  -2.0253702969832E+00
(PID.TID 0000.0001) %MON dynstat_theta_mean           =   3.8023202845950E+00
(PID.TID 0000.0001) %MON dynstat_theta_sd             =   4.5124566023914E+00
(PID.TID 0000.0001) %MON dynstat_theta_del2           =   2.5966587108942E-03
(PID.TID 0000.0001) %MON dynstat_salt_max             =   3.7555931137355E+01
(PID.TID 0000.0001) %MON dynstat_salt_min             =   3.1486884591927E+01
(PID.TID 0000.0001) %MON dynstat_salt_mean            =   3.4614649448187E+01
(PID.TID 0000.0001) %MON dynstat_salt_sd              =   3.1408029458752E-01
(PID.TID 0000.0001) %MON dynstat_salt_del2            =   4.0556894796895E-04
(PID.TID 0000.0001) %MON forcing_qnet_max             =   4.5149834136963E+02
(PID.TID 0000.0001) %MON forcing_qnet_min             =  -2.1192386779785E+02
(PID.TID 0000.0001) %MON forcing_qnet_mean            =  -1.7635880674728E+01
(PID.TID 0000.0001) %MON forcing_qnet_sd              =   1.1569931466250E+02
(PID.TID 0000.0001) %MON forcing_qnet_del2            =   2.7342599543089E-01
(PID.TID 0000.0001) %MON forcing_qsw_max              =   0.0000000000000E+00
(PID.TID 0000.0001) %MON forcing_qsw_min              =   0.0000000000000E+00
(PID.TID 0000.0001) %MON forcing_qsw_mean             =   0.0000000000000E+00
(PID.TID 0000.0001) %MON forcing_qsw_sd               =   0.0000000000000E+00
(PID.TID 0000.0001) %MON forcing_qsw_del2             =   0.0000000000000E+00
(PID.TID 0000.0001) %MON forcing_empmr_max            =   6.6865915471226E-05
(PID.TID 0000.0001) %MON forcing_empmr_min            =  -1.5018765964214E-04
(PID.TID 0000.0001) %MON forcing_empmr_mean           =   7.7320599494492E-09
(PID.TID 0000.0001) %MON forcing_empmr_sd             =   2.3858729798697E-05
(PID.TID 0000.0001) %MON forcing_empmr_del2           =   1.1192342175733E-07
(PID.TID 0000.0001) %MON forcing_fu_max               =   2.6902737915516E-01
(PID.TID 0000.0001) %MON forcing_fu_min               =  -1.5706808120012E-01
(PID.TID 0000.0001) %MON forcing_fu_mean              =   1.7820432460578E-02
(PID.TID 0000.0001) %MON forcing_fu_sd                =   8.9597462322892E-02
(PID.TID 0000.0001) %MON forcing_fu_del2              =   2.4876104015851E-04
(PID.TID 0000.0001) %MON forcing_fv_max               =   1.9845492169261E-01
(PID.TID 0000.0001) %MON forcing_fv_min               =  -1.5973595827818E-01
(PID.TID 0000.0001) %MON forcing_fv_mean              =  -6.3949581310796E-03
(PID.TID 0000.0001) %MON forcing_fv_sd                =   4.4425766452552E-02
(PID.TID 0000.0001) %MON forcing_fv_del2              =   1.7992767173481E-04
(PID.TID 0000.0001) %MON advcfl_uvel_max              =   3.3391324513770E-02
(PID.TID 0000.0001) %MON advcfl_vvel_max              =   2.9611177968925E-02
(PID.TID 0000.0001) %MON advcfl_wvel_max              =   1.2204927595519E-02
(PID.TID 0000.0001) %MON advcfl_W_hf_max              =   1.4537649486539E-02
(PID.TID 0000.0001) %MON pe_b_mean                    =   4.1120673457260E-04
(PID.TID 0000.0001) %MON ke_max                       =   3.1115895351285E-02
(PID.TID 0000.0001) %MON ke_mean                      =   1.0572012159447E-04
(PID.TID 0000.0001) %MON ke_vol                       =   1.2571476858570E+18
(PID.TID 0000.0001) %MON vort_r_min                   =  -9.1748015219916E-07
(PID.TID 0000.0001) %MON vort_r_max                   =   9.8013167654198E-07
(PID.TID 0000.0001) %MON vort_a_mean                  =  -2.4002453570026E-05
(PID.TID 0000.0001) %MON vort_a_sd                    =   7.3138177425003E-05
(PID.TID 0000.0001) %MON vort_p_mean                  =  -2.8585773838203E-05
(PID.TID 0000.0001) %MON vort_p_sd                    =   1.1453377454396E-04
(PID.TID 0000.0001) %MON surfExpan_theta_mean         =  -1.9841501325013E-07
(PID.TID 0000.0001) %MON surfExpan_salt_mean          =   2.0847793352755E-08
(PID.TID 0000.0001) // =======================================================
(PID.TID 0000.0001) // End MONITOR dynamic field statistics
(PID.TID 0000.0001) // =======================================================
(PID.TID 0000.0001) // =======================================================
(PID.TID 0000.0001) // Begin MONITOR ptracer field statistics
(PID.TID 0000.0001) // =======================================================
(PID.TID 0000.0001) %MON trcstat_ptracer01_max        =   2.4429510907340E+00
(PID.TID 0000.0001) %MON trcstat_ptracer01_min        =   1.6411747698219E+00
(PID.TID 0000.0001) %MON trcstat_ptracer01_mean       =   2.2619443242618E+00
(PID.TID 0000.0001) %MON trcstat_ptracer01_sd         =   1.0331647437323E-01
(PID.TID 0000.0001) %MON trcstat_ptracer01_del2       =   3.5363156392650E-05
(PID.TID 0000.0001) %MON trcstat_ptracer02_max        =   2.5618781159556E+00
(PID.TID 0000.0001) %MON trcstat_ptracer02_min        =   1.9500959934303E+00
(PID.TID 0000.0001) %MON trcstat_ptracer02_mean       =   2.3641951287651E+00
(PID.TID 0000.0001) %MON trcstat_ptracer02_sd         =   4.9630615120017E-02
(PID.TID 0000.0001) %MON trcstat_ptracer02_del2       =   2.3352274543050E-05
(PID.TID 0000.0001) %MON trcstat_ptracer03_max        =   3.2964210839914E-03
(PID.TID 0000.0001) %MON trcstat_ptracer03_min        =   4.8421937961820E-05
(PID.TID 0000.0001) %MON trcstat_ptracer03_mean       =   2.1265656434919E-03
(PID.TID 0000.0001) %MON trcstat_ptracer03_sd         =   6.9839649569146E-04
(PID.TID 0000.0001) %MON trcstat_ptracer03_del2       =   2.2300031820003E-07
(PID.TID 0000.0001) %MON trcstat_ptracer04_max        =   3.0028581708530E-04
(PID.TID 0000.0001) %MON trcstat_ptracer04_min        =  -1.8978324029358E-07
(PID.TID 0000.0001) %MON trcstat_ptracer04_mean       =   5.9552978750405E-06
(PID.TID 0000.0001) %MON trcstat_ptracer04_sd         =   2.6351196424833E-05
(PID.TID 0000.0001) %MON trcstat_ptracer04_del2       =   3.2779020777134E-08
(PID.TID 0000.0001) %MON trcstat_ptracer05_max        =   3.8428938817997E-01
(PID.TID 0000.0001) %MON trcstat_ptracer05_min        =   3.9787442557879E-03
(PID.TID 0000.0001) %MON trcstat_ptracer05_mean       =   1.6196238195150E-01
(PID.TID 0000.0001) %MON trcstat_ptracer05_sd         =   7.3413858249863E-02
(PID.TID 0000.0001) %MON trcstat_ptracer05_del2       =   3.1019704475807E-05
(PID.TID 0000.0001) // =======================================================
(PID.TID 0000.0001) // End MONITOR ptracers field statistics
(PID.TID 0000.0001) // =======================================================
(PID.TID 0000.0001) %CHECKPOINT   5184004 ckptA
 --> objf_test(bi,bj)   =  0.000000000000000D+00
 --> objf_tracer(bi,bj) =  0.000000000000000D+00
 --> objf_atl(bi,bj)    =  0.000000000000000D+00
 --> objf_test(bi,bj)   =  0.000000000000000D+00
 --> objf_tracer(bi,bj) =  0.000000000000000D+00
 --> objf_atl(bi,bj)    =  0.000000000000000D+00
 --> objf_test(bi,bj)   =  0.000000000000000D+00
 --> objf_tracer(bi,bj) =  0.000000000000000D+00
 --> objf_atl(bi,bj)    =  0.000000000000000D+00
 --> objf_test(bi,bj)   =  0.000000000000000D+00
 --> objf_tracer(bi,bj) =  0.000000000000000D+00
 --> objf_atl(bi,bj)    =  0.000000000000000D+00
  local fc =  0.000000000000000D+00
 global fc = -0.605804087721186D+12
 EXTERNAL_FIELDS_LOAD, it=   5184000 : Reading new data, i0,i1=   12    1 (prev=   12    1 )
 DIC_FIELDS_LOAD, it=   5184000 : Reading new data, i0,i1=   12    1 (prev=   12    1 )
(PID.TID 0000.0001) SOLVE_FOR_PRESSURE: putPmEinXvector =    F
 cg2d: Sum(rhs),rhsMax =  -2.93465216572031E-07  8.32814987068962E+00
 mean surface dic   1.9723249740641411        34.855624493690975     
 QQ myiter, totcost =      5184001  -149896021875.80466     
 cg2d: Sum(rhs),rhsMax =  -2.93547174123887E-07  8.32580875881018E+00
 mean surface dic   1.9723041038777025        34.855731590862938     
 QQ myiter, totcost =      5184002  -302787620551.21387     
 cg2d: Sum(rhs),rhsMax =  -2.93677626217459E-07  8.32215434141113E+00
 mean surface dic   1.9722740564988293        34.855734951310524     
 QQ myiter, totcost =      5184003  -454258131366.61536     
 cg2d: Sum(rhs),rhsMax =  -2.93793327443836E-07  8.31886491394280E+00
 mean surface dic   1.9722438449622262        34.855719155302666     
 QQ myiter, totcost =      5184004  -605804087721.18628     
(PID.TID 0000.0001) Did not write pickup because writePickupAtEnd = FALSE
 cg2d: Sum(rhs),rhsMax =  -2.93793327443836E-07  8.31886491394280E+00
 mean surface dic   1.9722438449622262        34.855719155302666     
 QQ myiter, totcost =      5184004  -605804087721.18628     
(PID.TID 0000.0001) Did not write pickup because writePickupAtEnd = FALSE
(PID.TID 0000.0001) Did not write pickup because writePickupAtEnd = FALSE
(PID.TID 0000.0001) // =======================================================
(PID.TID 0000.0001) // Begin MONITOR dynamic field statistics
(PID.TID 0000.0001) // =======================================================
(PID.TID 0000.0001) %MON ad_time_tsnumber             =               5184004
(PID.TID 0000.0001) %MON ad_time_secondsf             =   2.2394897280000E+11
(PID.TID 0000.0001) %MON ad_dynstat_adeta_max         =   0.0000000000000E+00
(PID.TID 0000.0001) %MON ad_dynstat_adeta_min         =   0.0000000000000E+00
(PID.TID 0000.0001) %MON ad_dynstat_adeta_mean        =   0.0000000000000E+00
(PID.TID 0000.0001) %MON ad_dynstat_adeta_sd          =   0.0000000000000E+00
(PID.TID 0000.0001) %MON ad_dynstat_adeta_del2        =   0.0000000000000E+00
(PID.TID 0000.0001) %MON ad_dynstat_aduvel_max        =   0.0000000000000E+00
(PID.TID 0000.0001) %MON ad_dynstat_aduvel_min        =   0.0000000000000E+00
(PID.TID 0000.0001) %MON ad_dynstat_aduvel_mean       =   0.0000000000000E+00
(PID.TID 0000.0001) %MON ad_dynstat_aduvel_sd         =   0.0000000000000E+00
(PID.TID 0000.0001) %MON ad_dynstat_aduvel_del2       =   0.0000000000000E+00
(PID.TID 0000.0001) %MON ad_dynstat_advvel_max        =   0.0000000000000E+00
(PID.TID 0000.0001) %MON ad_dynstat_advvel_min        =   0.0000000000000E+00
(PID.TID 0000.0001) %MON ad_dynstat_advvel_mean       =   0.0000000000000E+00
(PID.TID 0000.0001) %MON ad_dynstat_advvel_sd         =   0.0000000000000E+00
(PID.TID 0000.0001) %MON ad_dynstat_advvel_del2       =   0.0000000000000E+00
(PID.TID 0000.0001) %MON ad_dynstat_adwvel_max        =   0.0000000000000E+00
(PID.TID 0000.0001) %MON ad_dynstat_adwvel_min        =   0.0000000000000E+00
(PID.TID 0000.0001) %MON ad_dynstat_adwvel_mean       =   0.0000000000000E+00
(PID.TID 0000.0001) %MON ad_dynstat_adwvel_sd         =   0.0000000000000E+00
(PID.TID 0000.0001) %MON ad_dynstat_adwvel_del2       =   0.0000000000000E+00
(PID.TID 0000.0001) %MON ad_dynstat_adtheta_max       =   0.0000000000000E+00
(PID.TID 0000.0001) %MON ad_dynstat_adtheta_min       =   0.0000000000000E+00
(PID.TID 0000.0001) %MON ad_dynstat_adtheta_mean      =   0.0000000000000E+00
(PID.TID 0000.0001) %MON ad_dynstat_adtheta_sd        =   0.0000000000000E+00
(PID.TID 0000.0001) %MON ad_dynstat_adtheta_del2      =   0.0000000000000E+00
(PID.TID 0000.0001) %MON ad_dynstat_adsalt_max        =   0.0000000000000E+00
(PID.TID 0000.0001) %MON ad_dynstat_adsalt_min        =   0.0000000000000E+00
(PID.TID 0000.0001) %MON ad_dynstat_adsalt_mean       =   0.0000000000000E+00
(PID.TID 0000.0001) %MON ad_dynstat_adsalt_sd         =   0.0000000000000E+00
(PID.TID 0000.0001) %MON ad_dynstat_adsalt_del2       =   0.0000000000000E+00
(PID.TID 0000.0001) %MON ad_forcing_adqnet_max        =   0.0000000000000E+00
(PID.TID 0000.0001) %MON ad_forcing_adqnet_min        =   0.0000000000000E+00
(PID.TID 0000.0001) %MON ad_forcing_adqnet_mean       =   0.0000000000000E+00
(PID.TID 0000.0001) %MON ad_forcing_adqnet_sd         =   0.0000000000000E+00
(PID.TID 0000.0001) %MON ad_forcing_adqnet_del2       =   0.0000000000000E+00
(PID.TID 0000.0001) %MON ad_forcing_adempmr_max       =   0.0000000000000E+00
(PID.TID 0000.0001) %MON ad_forcing_adempmr_min       =   0.0000000000000E+00
(PID.TID 0000.0001) %MON ad_forcing_adempmr_mean      =   0.0000000000000E+00
(PID.TID 0000.0001) %MON ad_forcing_adempmr_sd        =   0.0000000000000E+00
(PID.TID 0000.0001) %MON ad_forcing_adempmr_del2      =   0.0000000000000E+00
(PID.TID 0000.0001) %MON ad_forcing_adfu_max          =   0.0000000000000E+00
(PID.TID 0000.0001) %MON ad_forcing_adfu_min          =   0.0000000000000E+00
(PID.TID 0000.0001) %MON ad_forcing_adfu_mean         =   0.0000000000000E+00
(PID.TID 0000.0001) %MON ad_forcing_adfu_sd           =   0.0000000000000E+00
(PID.TID 0000.0001) %MON ad_forcing_adfu_del2         =   0.0000000000000E+00
(PID.TID 0000.0001) %MON ad_forcing_adfv_max          =   0.0000000000000E+00
(PID.TID 0000.0001) %MON ad_forcing_adfv_min          =   0.0000000000000E+00
(PID.TID 0000.0001) %MON ad_forcing_adfv_mean         =   0.0000000000000E+00
(PID.TID 0000.0001) %MON ad_forcing_adfv_sd           =   0.0000000000000E+00
(PID.TID 0000.0001) %MON ad_forcing_adfv_del2         =   0.0000000000000E+00
(PID.TID 0000.0001) // =======================================================
(PID.TID 0000.0001) // End MONITOR dynamic field statistics
(PID.TID 0000.0001) // =======================================================
(PID.TID 0000.0001) // =======================================================
(PID.TID 0000.0001) // Begin MONITOR adptracer field statistics
(PID.TID 0000.0001) // =======================================================
(PID.TID 0000.0001) %MON ad_trcstat_adptracer01_max   =   0.0000000000000E+00
(PID.TID 0000.0001) %MON ad_trcstat_adptracer01_min   =   0.0000000000000E+00
(PID.TID 0000.0001) %MON ad_trcstat_adptracer01_mean  =   0.0000000000000E+00
(PID.TID 0000.0001) %MON ad_trcstat_adptracer01_sd    =   0.0000000000000E+00
(PID.TID 0000.0001) %MON ad_trcstat_adptracer01_del2  =   0.0000000000000E+00
(PID.TID 0000.0001) %MON ad_trcstat_adptracer02_max   =   0.0000000000000E+00
(PID.TID 0000.0001) %MON ad_trcstat_adptracer02_min   =   0.0000000000000E+00
(PID.TID 0000.0001) %MON ad_trcstat_adptracer02_mean  =   0.0000000000000E+00
(PID.TID 0000.0001) %MON ad_trcstat_adptracer02_sd    =   0.0000000000000E+00
(PID.TID 0000.0001) %MON ad_trcstat_adptracer02_del2  =   0.0000000000000E+00
(PID.TID 0000.0001) %MON ad_trcstat_adptracer03_max   =   0.0000000000000E+00
(PID.TID 0000.0001) %MON ad_trcstat_adptracer03_min   =   0.0000000000000E+00
(PID.TID 0000.0001) %MON ad_trcstat_adptracer03_mean  =   0.0000000000000E+00
(PID.TID 0000.0001) %MON ad_trcstat_adptracer03_sd    =   0.0000000000000E+00
(PID.TID 0000.0001) %MON ad_trcstat_adptracer03_del2  =   0.0000000000000E+00
(PID.TID 0000.0001) %MON ad_trcstat_adptracer04_max   =   0.0000000000000E+00
(PID.TID 0000.0001) %MON ad_trcstat_adptracer04_min   =   0.0000000000000E+00
(PID.TID 0000.0001) %MON ad_trcstat_adptracer04_mean  =   0.0000000000000E+00
(PID.TID 0000.0001) %MON ad_trcstat_adptracer04_sd    =   0.0000000000000E+00
(PID.TID 0000.0001) %MON ad_trcstat_adptracer04_del2  =   0.0000000000000E+00
(PID.TID 0000.0001) %MON ad_trcstat_adptracer05_max   =   0.0000000000000E+00
(PID.TID 0000.0001) %MON ad_trcstat_adptracer05_min   =   0.0000000000000E+00
(PID.TID 0000.0001) %MON ad_trcstat_adptracer05_mean  =   0.0000000000000E+00
(PID.TID 0000.0001) %MON ad_trcstat_adptracer05_sd    =   0.0000000000000E+00
(PID.TID 0000.0001) %MON ad_trcstat_adptracer05_del2  =   0.0000000000000E+00
(PID.TID 0000.0001) // =======================================================
(PID.TID 0000.0001) // End MONITOR ptracers field statistics
(PID.TID 0000.0001) // =======================================================
 cg2d: Sum(rhs),rhsMax =   0.00000000000000E+00  0.00000000000000E+00
 cg2d: Sum(rhs),rhsMax =  -2.93677626217459E-07  8.32215434141113E+00
 mean surface dic   1.9722740564988293        34.855734951310524     
 QQ myiter, totcost =      5184003  -454258131366.61536     
(PID.TID 0000.0001) // =======================================================
(PID.TID 0000.0001) // Begin MONITOR dynamic field statistics
(PID.TID 0000.0001) // =======================================================
(PID.TID 0000.0001) %MON ad_time_tsnumber             =               5184003
(PID.TID 0000.0001) %MON ad_time_secondsf             =   2.2394892960000E+11
(PID.TID 0000.0001) %MON ad_dynstat_adeta_max         =   0.0000000000000E+00
(PID.TID 0000.0001) %MON ad_dynstat_adeta_min         =   0.0000000000000E+00
(PID.TID 0000.0001) %MON ad_dynstat_adeta_mean        =   0.0000000000000E+00
(PID.TID 0000.0001) %MON ad_dynstat_adeta_sd          =   0.0000000000000E+00
(PID.TID 0000.0001) %MON ad_dynstat_adeta_del2        =   0.0000000000000E+00
(PID.TID 0000.0001) %MON ad_dynstat_aduvel_max        =   3.3775285361054E+08
(PID.TID 0000.0001) %MON ad_dynstat_aduvel_min        =  -1.0844682116927E+08
(PID.TID 0000.0001) %MON ad_dynstat_aduvel_mean       =   1.1489067432263E+04
(PID.TID 0000.0001) %MON ad_dynstat_aduvel_sd         =   1.6404537423840E+06
(PID.TID 0000.0001) %MON ad_dynstat_aduvel_del2       =   4.1467417901181E+04
(PID.TID 0000.0001) %MON ad_dynstat_advvel_max        =   1.6764074663091E+08
(PID.TID 0000.0001) %MON ad_dynstat_advvel_min        =  -1.8703411791068E+08
(PID.TID 0000.0001) %MON ad_dynstat_advvel_mean       =   1.1614138407084E+04
(PID.TID 0000.0001) %MON ad_dynstat_advvel_sd         =   2.9364923483192E+06
(PID.TID 0000.0001) %MON ad_dynstat_advvel_del2       =   4.1409229340259E+04
(PID.TID 0000.0001) %MON ad_dynstat_adwvel_max        =   7.0280439280681E+11
(PID.TID 0000.0001) %MON ad_dynstat_adwvel_min        =  -1.1636597307122E+12
(PID.TID 0000.0001) %MON ad_dynstat_adwvel_mean       =   1.8744491235304E+09
(PID.TID 0000.0001) %MON ad_dynstat_adwvel_sd         =   2.8668377496014E+10
(PID.TID 0000.0001) %MON ad_dynstat_adwvel_del2       =   1.9689222177278E+08
(PID.TID 0000.0001) %MON ad_dynstat_adtheta_max       =   1.5531902391245E+09
(PID.TID 0000.0001) %MON ad_dynstat_adtheta_min       =  -1.7098446865457E+09
(PID.TID 0000.0001) %MON ad_dynstat_adtheta_mean      =  -1.4517506962177E+06
(PID.TID 0000.0001) %MON ad_dynstat_adtheta_sd        =   1.5004835069070E+07
(PID.TID 0000.0001) %MON ad_dynstat_adtheta_del2      =   2.5502456868356E+05
(PID.TID 0000.0001) %MON ad_dynstat_adsalt_max        =   7.4764732826301E+09
(PID.TID 0000.0001) %MON ad_dynstat_adsalt_min        =  -7.5260738979768E+09
(PID.TID 0000.0001) %MON ad_dynstat_adsalt_mean       =  -9.8175492897087E+05
(PID.TID 0000.0001) %MON ad_dynstat_adsalt_sd         =   3.1630032472772E+07
(PID.TID 0000.0001) %MON ad_dynstat_adsalt_del2       =   1.1202741886501E+06
(PID.TID 0000.0001) %MON ad_forcing_adqnet_max        =   0.0000000000000E+00
(PID.TID 0000.0001) %MON ad_forcing_adqnet_min        =   0.0000000000000E+00
(PID.TID 0000.0001) %MON ad_forcing_adqnet_mean       =   0.0000000000000E+00
(PID.TID 0000.0001) %MON ad_forcing_adqnet_sd         =   0.0000000000000E+00
(PID.TID 0000.0001) %MON ad_forcing_adqnet_del2       =   0.0000000000000E+00
(PID.TID 0000.0001) %MON ad_forcing_adempmr_max       =   0.0000000000000E+00
(PID.TID 0000.0001) %MON ad_forcing_adempmr_min       =   0.0000000000000E+00
(PID.TID 0000.0001) %MON ad_forcing_adempmr_mean      =   0.0000000000000E+00
(PID.TID 0000.0001) %MON ad_forcing_adempmr_sd        =   0.0000000000000E+00
(PID.TID 0000.0001) %MON ad_forcing_adempmr_del2      =   0.0000000000000E+00
(PID.TID 0000.0001) %MON ad_forcing_adfu_max          =   0.0000000000000E+00
(PID.TID 0000.0001) %MON ad_forcing_adfu_min          =   0.0000000000000E+00
(PID.TID 0000.0001) %MON ad_forcing_adfu_mean         =   0.0000000000000E+00
(PID.TID 0000.0001) %MON ad_forcing_adfu_sd           =   0.0000000000000E+00
(PID.TID 0000.0001) %MON ad_forcing_adfu_del2         =   0.0000000000000E+00
(PID.TID 0000.0001) %MON ad_forcing_adfv_max          =   0.0000000000000E+00
(PID.TID 0000.0001) %MON ad_forcing_adfv_min          =   0.0000000000000E+00
(PID.TID 0000.0001) %MON ad_forcing_adfv_mean         =   0.0000000000000E+00
(PID.TID 0000.0001) %MON ad_forcing_adfv_sd           =   0.0000000000000E+00
(PID.TID 0000.0001) %MON ad_forcing_adfv_del2         =   0.0000000000000E+00
(PID.TID 0000.0001) // =======================================================
(PID.TID 0000.0001) // End MONITOR dynamic field statistics
(PID.TID 0000.0001) // =======================================================
(PID.TID 0000.0001) // =======================================================
(PID.TID 0000.0001) // Begin MONITOR adptracer field statistics
(PID.TID 0000.0001) // =======================================================
(PID.TID 0000.0001) %MON ad_trcstat_adptracer01_max   =   1.7324108917802E+08
(PID.TID 0000.0001) %MON ad_trcstat_adptracer01_min   =  -3.2949174797289E+10
(PID.TID 0000.0001) %MON ad_trcstat_adptracer01_mean  =  -1.6870035872312E+08
(PID.TID 0000.0001) %MON ad_trcstat_adptracer01_sd    =   1.5920369812924E+09
(PID.TID 0000.0001) %MON ad_trcstat_adptracer01_del2  =   7.7345602037606E+06
(PID.TID 0000.0001) %MON ad_trcstat_adptracer02_max   =   2.9138438018114E+10
(PID.TID 0000.0001) %MON ad_trcstat_adptracer02_min   =  -1.4986562040647E+08
(PID.TID 0000.0001) %MON ad_trcstat_adptracer02_mean  =   1.4249280343396E+08
(PID.TID 0000.0001) %MON ad_trcstat_adptracer02_sd    =   1.3590664010735E+09
(PID.TID 0000.0001) %MON ad_trcstat_adptracer02_del2  =   6.5989418865269E+06
(PID.TID 0000.0001) %MON ad_trcstat_adptracer03_max   =   1.6305937199429E+08
(PID.TID 0000.0001) %MON ad_trcstat_adptracer03_min   =  -3.1299611789053E+10
(PID.TID 0000.0001) %MON ad_trcstat_adptracer03_mean  =  -1.5988233425487E+08
(PID.TID 0000.0001) %MON ad_trcstat_adptracer03_sd    =   1.5079385642600E+09
(PID.TID 0000.0001) %MON ad_trcstat_adptracer03_del2  =   7.3011574048310E+06
(PID.TID 0000.0001) %MON ad_trcstat_adptracer04_max   =   0.0000000000000E+00
(PID.TID 0000.0001) %MON ad_trcstat_adptracer04_min   =   0.0000000000000E+00
(PID.TID 0000.0001) %MON ad_trcstat_adptracer04_mean  =   0.0000000000000E+00
(PID.TID 0000.0001) %MON ad_trcstat_adptracer04_sd    =   0.0000000000000E+00
(PID.TID 0000.0001) %MON ad_trcstat_adptracer04_del2  =   0.0000000000000E+00
(PID.TID 0000.0001) %MON ad_trcstat_adptracer05_max   =   0.0000000000000E+00
(PID.TID 0000.0001) %MON ad_trcstat_adptracer05_min   =   0.0000000000000E+00
(PID.TID 0000.0001) %MON ad_trcstat_adptracer05_mean  =   0.0000000000000E+00
(PID.TID 0000.0001) %MON ad_trcstat_adptracer05_sd    =   0.0000000000000E+00
(PID.TID 0000.0001) %MON ad_trcstat_adptracer05_del2  =   0.0000000000000E+00
(PID.TID 0000.0001) // =======================================================
(PID.TID 0000.0001) // End MONITOR ptracers field statistics
(PID.TID 0000.0001) // =======================================================
 cg2d: Sum(rhs),rhsMax =   6.88338275267597E-15  4.99946462255015E+03
 cg2d: Sum(rhs),rhsMax =  -2.93547174123887E-07  8.32580875881018E+00
 mean surface dic   1.9723041038777025        34.855731590862938     
 QQ myiter, totcost =      5184002  -302787620551.21387     
(PID.TID 0000.0001) // =======================================================
(PID.TID 0000.0001) // Begin MONITOR dynamic field statistics
(PID.TID 0000.0001) // =======================================================
(PID.TID 0000.0001) %MON ad_time_tsnumber             =               5184002
(PID.TID 0000.0001) %MON ad_time_secondsf             =   2.2394888640000E+11
(PID.TID 0000.0001) %MON ad_dynstat_adeta_max         =   2.1689601305674E+08
(PID.TID 0000.0001) %MON ad_dynstat_adeta_min         =  -2.8613113793626E+08
(PID.TID 0000.0001) %MON ad_dynstat_adeta_mean        =  -2.4469711822231E+05
(PID.TID 0000.0001) %MON ad_dynstat_adeta_sd          =   3.2976993290891E+07
(PID.TID 0000.0001) %MON ad_dynstat_adeta_del2        =   1.2227029208293E+06
(PID.TID 0000.0001) %MON ad_dynstat_aduvel_max        =   6.5444165396535E+08
(PID.TID 0000.0001) %MON ad_dynstat_aduvel_min        =  -7.2087454720109E+08
(PID.TID 0000.0001) %MON ad_dynstat_aduvel_mean       =   1.0378134997292E+06
(PID.TID 0000.0001) %MON ad_dynstat_aduvel_sd         =   5.1533105346237E+07
(PID.TID 0000.0001) %MON ad_dynstat_aduvel_del2       =   2.6638329847527E+05
(PID.TID 0000.0001) %MON ad_dynstat_advvel_max        =   6.2351783389588E+08
(PID.TID 0000.0001) %MON ad_dynstat_advvel_min        =  -1.1547434630838E+09
(PID.TID 0000.0001) %MON ad_dynstat_advvel_mean       =  -5.8005413895588E+06
(PID.TID 0000.0001) %MON ad_dynstat_advvel_sd         =   1.0535709847621E+08
(PID.TID 0000.0001) %MON ad_dynstat_advvel_del2       =   4.7830918510608E+05
(PID.TID 0000.0001) %MON ad_dynstat_adwvel_max        =   8.5859003042126E+11
(PID.TID 0000.0001) %MON ad_dynstat_adwvel_min        =  -1.5633541701876E+12
(PID.TID 0000.0001) %MON ad_dynstat_adwvel_mean       =   2.0165704593930E+09
(PID.TID 0000.0001) %MON ad_dynstat_adwvel_sd         =   3.6282557423609E+10
(PID.TID 0000.0001) %MON ad_dynstat_adwvel_del2       =   2.9376592330663E+08
(PID.TID 0000.0001) %MON ad_dynstat_adtheta_max       =   2.0579139830168E+09
(PID.TID 0000.0001) %MON ad_dynstat_adtheta_min       =  -3.2064190690889E+09
(PID.TID 0000.0001) %MON ad_dynstat_adtheta_mean      =  -2.3320633247741E+06
(PID.TID 0000.0001) %MON ad_dynstat_adtheta_sd        =   2.5726185854988E+07
(PID.TID 0000.0001) %MON ad_dynstat_adtheta_del2      =   4.6531997116661E+05
(PID.TID 0000.0001) %MON ad_dynstat_adsalt_max        =   1.8991283634487E+10
(PID.TID 0000.0001) %MON ad_dynstat_adsalt_min        =  -1.9312840026121E+10
(PID.TID 0000.0001) %MON ad_dynstat_adsalt_mean       =  -1.5653763051084E+06
(PID.TID 0000.0001) %MON ad_dynstat_adsalt_sd         =   7.0204938250904E+07
(PID.TID 0000.0001) %MON ad_dynstat_adsalt_del2       =   2.3237337842232E+06
(PID.TID 0000.0001) %MON ad_forcing_adqnet_max        =   0.0000000000000E+00
(PID.TID 0000.0001) %MON ad_forcing_adqnet_min        =   0.0000000000000E+00
(PID.TID 0000.0001) %MON ad_forcing_adqnet_mean       =   0.0000000000000E+00
(PID.TID 0000.0001) %MON ad_forcing_adqnet_sd         =   0.0000000000000E+00
(PID.TID 0000.0001) %MON ad_forcing_adqnet_del2       =   0.0000000000000E+00
(PID.TID 0000.0001) %MON ad_forcing_adempmr_max       =   0.0000000000000E+00
(PID.TID 0000.0001) %MON ad_forcing_adempmr_min       =   0.0000000000000E+00
(PID.TID 0000.0001) %MON ad_forcing_adempmr_mean      =   0.0000000000000E+00
(PID.TID 0000.0001) %MON ad_forcing_adempmr_sd        =   0.0000000000000E+00
(PID.TID 0000.0001) %MON ad_forcing_adempmr_del2      =   0.0000000000000E+00
(PID.TID 0000.0001) %MON ad_forcing_adfu_max          =   0.0000000000000E+00
(PID.TID 0000.0001) %MON ad_forcing_adfu_min          =   0.0000000000000E+00
(PID.TID 0000.0001) %MON ad_forcing_adfu_mean         =   0.0000000000000E+00
(PID.TID 0000.0001) %MON ad_forcing_adfu_sd           =   0.0000000000000E+00
(PID.TID 0000.0001) %MON ad_forcing_adfu_del2         =   0.0000000000000E+00
(PID.TID 0000.0001) %MON ad_forcing_adfv_max          =   0.0000000000000E+00
(PID.TID 0000.0001) %MON ad_forcing_adfv_min          =   0.0000000000000E+00
(PID.TID 0000.0001) %MON ad_forcing_adfv_mean         =   0.0000000000000E+00
(PID.TID 0000.0001) %MON ad_forcing_adfv_sd           =   0.0000000000000E+00
(PID.TID 0000.0001) %MON ad_forcing_adfv_del2         =   0.0000000000000E+00
(PID.TID 0000.0001) // =======================================================
(PID.TID 0000.0001) // End MONITOR dynamic field statistics
(PID.TID 0000.0001) // =======================================================
(PID.TID 0000.0001) // =======================================================
(PID.TID 0000.0001) // Begin MONITOR adptracer field statistics
(PID.TID 0000.0001) // =======================================================
(PID.TID 0000.0001) %MON ad_trcstat_adptracer01_max   =   4.1220358616738E+08
(PID.TID 0000.0001) %MON ad_trcstat_adptracer01_min   =  -5.2564233345006E+10
(PID.TID 0000.0001) %MON ad_trcstat_adptracer01_mean  =  -2.7416804987506E+08
(PID.TID 0000.0001) %MON ad_trcstat_adptracer01_sd    =   2.5757344652821E+09
(PID.TID 0000.0001) %MON ad_trcstat_adptracer01_del2  =   1.2119706118853E+07
(PID.TID 0000.0001) %MON ad_trcstat_adptracer02_max   =   4.5708080530104E+10
(PID.TID 0000.0001) %MON ad_trcstat_adptracer02_min   =  -3.4976802256057E+08
(PID.TID 0000.0001) %MON ad_trcstat_adptracer02_mean  =   2.2730756589855E+08
(PID.TID 0000.0001) %MON ad_trcstat_adptracer02_sd    =   2.1588021188996E+09
(PID.TID 0000.0001) %MON ad_trcstat_adptracer02_del2  =   1.0158348950103E+07
(PID.TID 0000.0001) %MON ad_trcstat_adptracer03_max   =   3.7106090451990E+08
(PID.TID 0000.0001) %MON ad_trcstat_adptracer03_min   =  -4.7492811401832E+10
(PID.TID 0000.0001) %MON ad_trcstat_adptracer03_mean  =  -2.2588878070549E+08
(PID.TID 0000.0001) %MON ad_trcstat_adptracer03_sd    =   2.1695563975148E+09
(PID.TID 0000.0001) %MON ad_trcstat_adptracer03_del2  =   1.0545339120740E+07
(PID.TID 0000.0001) %MON ad_trcstat_adptracer04_max   =   1.1352075797239E+08
(PID.TID 0000.0001) %MON ad_trcstat_adptracer04_min   =  -1.2084670335121E+10
(PID.TID 0000.0001) %MON ad_trcstat_adptracer04_mean  =  -6.1662756988699E+07
(PID.TID 0000.0001) %MON ad_trcstat_adptracer04_sd    =   5.8057856256346E+08
(PID.TID 0000.0001) %MON ad_trcstat_adptracer04_del2  =   2.7541951823107E+06
(PID.TID 0000.0001) %MON ad_trcstat_adptracer05_max   =   0.0000000000000E+00
(PID.TID 0000.0001) %MON ad_trcstat_adptracer05_min   =   0.0000000000000E+00
(PID.TID 0000.0001) %MON ad_trcstat_adptracer05_mean  =   0.0000000000000E+00
(PID.TID 0000.0001) %MON ad_trcstat_adptracer05_sd    =   0.0000000000000E+00
(PID.TID 0000.0001) %MON ad_trcstat_adptracer05_del2  =   0.0000000000000E+00
(PID.TID 0000.0001) // =======================================================
(PID.TID 0000.0001) // End MONITOR ptracers field statistics
(PID.TID 0000.0001) // =======================================================
 cg2d: Sum(rhs),rhsMax =   3.44169137633799E-14  1.65229981215082E+04
 EXTERNAL_FIELDS_LOAD, it=   5184000 : Reading new data, i0,i1=   12    1 (prev=   12    1 )
 DIC_FIELDS_LOAD, it=   5184000 : Reading new data, i0,i1=   12    1 (prev=   12    1 )
(PID.TID 0000.0001) SOLVE_FOR_PRESSURE: putPmEinXvector =    F
 cg2d: Sum(rhs),rhsMax =  -2.93465216572031E-07  8.32814987068962E+00
 mean surface dic   1.9723249740641411        34.855624493690975     
 QQ myiter, totcost =      5184001  -149896021875.80466     
 EXTERNAL_FIELDS_LOAD, it=   5184000 : Reading new data, i0,i1=   12    1 (prev=   12    1 )
 DIC_FIELDS_LOAD, it=   5184000 : Reading new data, i0,i1=   12    1 (prev=   12    1 )
(PID.TID 0000.0001) // =======================================================
(PID.TID 0000.0001) // Begin MONITOR dynamic field statistics
(PID.TID 0000.0001) // =======================================================
(PID.TID 0000.0001) %MON ad_time_tsnumber             =               5184001
(PID.TID 0000.0001) %MON ad_time_secondsf             =   2.2394884320000E+11
(PID.TID 0000.0001) %MON ad_dynstat_adeta_max         =   5.6366552002809E+08
(PID.TID 0000.0001) %MON ad_dynstat_adeta_min         =  -7.0595693117705E+08
(PID.TID 0000.0001) %MON ad_dynstat_adeta_mean        =  -7.9548599415038E+05
(PID.TID 0000.0001) %MON ad_dynstat_adeta_sd          =   8.7114091012699E+07
(PID.TID 0000.0001) %MON ad_dynstat_adeta_del2        =   2.9684741012255E+06
(PID.TID 0000.0001) %MON ad_dynstat_aduvel_max        =   1.2345270331842E+09
(PID.TID 0000.0001) %MON ad_dynstat_aduvel_min        =  -1.1138163400123E+09
(PID.TID 0000.0001) %MON ad_dynstat_aduvel_mean       =   1.4956297014387E+06
(PID.TID 0000.0001) %MON ad_dynstat_aduvel_sd         =   9.3503305056044E+07
(PID.TID 0000.0001) %MON ad_dynstat_aduvel_del2       =   4.4561727060761E+05
(PID.TID 0000.0001) %MON ad_dynstat_advvel_max        =   1.1894565382746E+09
(PID.TID 0000.0001) %MON ad_dynstat_advvel_min        =  -2.2640104416651E+09
(PID.TID 0000.0001) %MON ad_dynstat_advvel_mean       =  -1.2478956269991E+07
(PID.TID 0000.0001) %MON ad_dynstat_advvel_sd         =   2.0795227948416E+08
(PID.TID 0000.0001) %MON ad_dynstat_advvel_del2       =   8.2670815690798E+05
(PID.TID 0000.0001) %MON ad_dynstat_adwvel_max        =   1.1948009670091E+12
(PID.TID 0000.0001) %MON ad_dynstat_adwvel_min        =  -2.6680600739967E+12
(PID.TID 0000.0001) %MON ad_dynstat_adwvel_mean       =   2.7678325739649E+09
(PID.TID 0000.0001) %MON ad_dynstat_adwvel_sd         =   5.2062737465803E+10
(PID.TID 0000.0001) %MON ad_dynstat_adwvel_del2       =   4.4466827644105E+08
(PID.TID 0000.0001) %MON ad_dynstat_adtheta_max       =   2.4232407017848E+09
(PID.TID 0000.0001) %MON ad_dynstat_adtheta_min       =  -4.3013751583516E+09
(PID.TID 0000.0001) %MON ad_dynstat_adtheta_mean      =  -3.4203452226676E+06
(PID.TID 0000.0001) %MON ad_dynstat_adtheta_sd        =   3.4629136509949E+07
(PID.TID 0000.0001) %MON ad_dynstat_adtheta_del2      =   4.8002868572420E+05
(PID.TID 0000.0001) %MON ad_dynstat_adsalt_max        =   2.5245937556104E+10
(PID.TID 0000.0001) %MON ad_dynstat_adsalt_min        =  -2.5635756451052E+10
(PID.TID 0000.0001) %MON ad_dynstat_adsalt_mean       =  -2.3240707276806E+06
(PID.TID 0000.0001) %MON ad_dynstat_adsalt_sd         =   8.0141042381169E+07
(PID.TID 0000.0001) %MON ad_dynstat_adsalt_del2       =   2.6021527277415E+06
(PID.TID 0000.0001) %MON ad_forcing_adqnet_max        =   0.0000000000000E+00
(PID.TID 0000.0001) %MON ad_forcing_adqnet_min        =   0.0000000000000E+00
(PID.TID 0000.0001) %MON ad_forcing_adqnet_mean       =   0.0000000000000E+00
(PID.TID 0000.0001) %MON ad_forcing_adqnet_sd         =   0.0000000000000E+00
(PID.TID 0000.0001) %MON ad_forcing_adqnet_del2       =   0.0000000000000E+00
(PID.TID 0000.0001) %MON ad_forcing_adempmr_max       =   0.0000000000000E+00
(PID.TID 0000.0001) %MON ad_forcing_adempmr_min       =   0.0000000000000E+00
(PID.TID 0000.0001) %MON ad_forcing_adempmr_mean      =   0.0000000000000E+00
(PID.TID 0000.0001) %MON ad_forcing_adempmr_sd        =   0.0000000000000E+00
(PID.TID 0000.0001) %MON ad_forcing_adempmr_del2      =   0.0000000000000E+00
(PID.TID 0000.0001) %MON ad_forcing_adfu_max          =   0.0000000000000E+00
(PID.TID 0000.0001) %MON ad_forcing_adfu_min          =   0.0000000000000E+00
(PID.TID 0000.0001) %MON ad_forcing_adfu_mean         =   0.0000000000000E+00
(PID.TID 0000.0001) %MON ad_forcing_adfu_sd           =   0.0000000000000E+00
(PID.TID 0000.0001) %MON ad_forcing_adfu_del2         =   0.0000000000000E+00
(PID.TID 0000.0001) %MON ad_forcing_adfv_max          =   0.0000000000000E+00
(PID.TID 0000.0001) %MON ad_forcing_adfv_min          =   0.0000000000000E+00
(PID.TID 0000.0001) %MON ad_forcing_adfv_mean         =   0.0000000000000E+00
(PID.TID 0000.0001) %MON ad_forcing_adfv_sd           =   0.0000000000000E+00
(PID.TID 0000.0001) %MON ad_forcing_adfv_del2         =   0.0000000000000E+00
(PID.TID 0000.0001) // =======================================================
(PID.TID 0000.0001) // End MONITOR dynamic field statistics
(PID.TID 0000.0001) // =======================================================
(PID.TID 0000.0001) // =======================================================
(PID.TID 0000.0001) // Begin MONITOR adptracer field statistics
(PID.TID 0000.0001) // =======================================================
(PID.TID 0000.0001) %MON ad_trcstat_adptracer01_max   =   7.6662194734203E+08
(PID.TID 0000.0001) %MON ad_trcstat_adptracer01_min   =  -7.7568747569930E+10
(PID.TID 0000.0001) %MON ad_trcstat_adptracer01_mean  =  -4.0444373541899E+08
(PID.TID 0000.0001) %MON ad_trcstat_adptracer01_sd    =   3.7960061998695E+09
(PID.TID 0000.0001) %MON ad_trcstat_adptracer01_del2  =   1.7249405572410E+07
(PID.TID 0000.0001) %MON ad_trcstat_adptracer02_max   =   6.7734099875103E+10
(PID.TID 0000.0001) %MON ad_trcstat_adptracer02_min   =  -6.4650948839256E+08
(PID.TID 0000.0001) %MON ad_trcstat_adptracer02_mean  =   3.3481690834026E+08
(PID.TID 0000.0001) %MON ad_trcstat_adptracer02_sd    =   3.1769397761905E+09
(PID.TID 0000.0001) %MON ad_trcstat_adptracer02_del2  =   1.4449427896230E+07
(PID.TID 0000.0001) %MON ad_trcstat_adptracer03_max   =   6.6250140359548E+08
(PID.TID 0000.0001) %MON ad_trcstat_adptracer03_min   =  -6.8825353499544E+10
(PID.TID 0000.0001) %MON ad_trcstat_adptracer03_mean  =  -2.9912835826451E+08
(PID.TID 0000.0001) %MON ad_trcstat_adptracer03_sd    =   2.9519914204810E+09
(PID.TID 0000.0001) %MON ad_trcstat_adptracer03_del2  =   1.4275459015963E+07
(PID.TID 0000.0001) %MON ad_trcstat_adptracer04_max   =   3.9671799260174E+08
(PID.TID 0000.0001) %MON ad_trcstat_adptracer04_min   =  -3.1270777093205E+10
(PID.TID 0000.0001) %MON ad_trcstat_adptracer04_mean  =  -1.6146661377948E+08
(PID.TID 0000.0001) %MON ad_trcstat_adptracer04_sd    =   1.5147768977597E+09
(PID.TID 0000.0001) %MON ad_trcstat_adptracer04_del2  =   6.9656883799995E+06
(PID.TID 0000.0001) %MON ad_trcstat_adptracer05_max   =   0.0000000000000E+00
(PID.TID 0000.0001) %MON ad_trcstat_adptracer05_min   =   0.0000000000000E+00
(PID.TID 0000.0001) %MON ad_trcstat_adptracer05_mean  =   0.0000000000000E+00
(PID.TID 0000.0001) %MON ad_trcstat_adptracer05_sd    =   0.0000000000000E+00
(PID.TID 0000.0001) %MON ad_trcstat_adptracer05_del2  =   0.0000000000000E+00
(PID.TID 0000.0001) // =======================================================
(PID.TID 0000.0001) // End MONITOR ptracers field statistics
(PID.TID 0000.0001) // =======================================================
 cg2d: Sum(rhs),rhsMax =  -7.32747196252603E-15  2.65617183192944E+04
(PID.TID 0000.0001)  simulName=>Tutorial Biogeo<
(PID.TID 0000.0001)  nRecords = 123 ; filePrec =  64 ; fileIter =   5184000
(PID.TID 0000.0001)     nDims =   2 , dims:
(PID.TID 0000.0001)    1: 128   1 128
(PID.TID 0000.0001)    2:  64   1  64
(PID.TID 0000.0001)     nFlds =  11 , nFl3D =   8 , fields:
(PID.TID 0000.0001)  >Uvel    < >Vvel    < >Theta   < >Salt    < >GuNm1   < >GvNm1   < >GtNm1   < >GsNm1   < >EtaN    < >dEtaHdt < >EtaH    <
(PID.TID 0000.0001) missingVal=  1.00000000000000E+00 ; nTimRec =   0 , timeList:
(PID.TID 0000.0001) READ_MFLDS_3D_RL: read field: "Uvel    ", #   1 in fldList, rec=   1
(PID.TID 0000.0001) READ_MFLDS_3D_RL: read field: "Vvel    ", #   2 in fldList, rec=   2
(PID.TID 0000.0001) READ_MFLDS_3D_RL: read field: "Theta   ", #   3 in fldList, rec=   3
(PID.TID 0000.0001) READ_MFLDS_3D_RL: read field: "Salt    ", #   4 in fldList, rec=   4
(PID.TID 0000.0001) READ_MFLDS_3D_RL: read field: "GuNm1   ", #   5 in fldList, rec=   5
(PID.TID 0000.0001) READ_MFLDS_3D_RL: read field: "GvNm1   ", #   6 in fldList, rec=   6
(PID.TID 0000.0001) READ_MFLDS_3D_RL: read field: "GtNm1   ", #   7 in fldList, rec=   7
(PID.TID 0000.0001) READ_MFLDS_3D_RL: read field: "GsNm1   ", #   8 in fldList, rec=   8
(PID.TID 0000.0001) READ_MFLDS_3D_RL: read field: "EtaN    ", #   9 in fldList, rec= 121
(PID.TID 0000.0001) READ_MFLDS_CHECK: - normal end ; reset MFLDS file-name: pickup.0005184000
(PID.TID 0000.0001)  simulName=>Tutorial Biogeo<
(PID.TID 0000.0001)  nRecords =   5 ; filePrec =  64 ; fileIter =   5184000
(PID.TID 0000.0001)     nDims =   3 , dims:
(PID.TID 0000.0001)    1: 128   1 128
(PID.TID 0000.0001)    2:  64   1  64
(PID.TID 0000.0001)    3:  15   1  15
(PID.TID 0000.0001)     nFlds =   5 , nFl3D =   0 , fields:
(PID.TID 0000.0001)  >pTr01   < >pTr02   < >pTr03   < >pTr04   < >pTr05   <
(PID.TID 0000.0001) missingVal=  1.00000000000000E+00 ; nTimRec =   0 , timeList:
(PID.TID 0000.0001) READ_MFLDS_3D_RL: read field: "pTr01   ", #   1 in fldList, rec=   1
(PID.TID 0000.0001) READ_MFLDS_3D_RL: read field: "pTr02   ", #   2 in fldList, rec=   2
(PID.TID 0000.0001) READ_MFLDS_3D_RL: read field: "pTr03   ", #   3 in fldList, rec=   3
(PID.TID 0000.0001) READ_MFLDS_3D_RL: read field: "pTr04   ", #   4 in fldList, rec=   4
(PID.TID 0000.0001) READ_MFLDS_3D_RL: read field: "pTr05   ", #   5 in fldList, rec=   5
(PID.TID 0000.0001) READ_MFLDS_CHECK: - normal end ; reset MFLDS file-name: pickup_ptracers.0005184000
 DIC_SURFFORCING_INIT, it=   5184000 : Reading new data, i0,i1=   12    1
 QQ alpha before  9.70000000000000011E-011
(PID.TID 0000.0001) // =======================================================
(PID.TID 0000.0001) // Begin MONITOR dynamic field statistics
(PID.TID 0000.0001) // =======================================================
(PID.TID 0000.0001) %MON ad_time_tsnumber             =               5184000
(PID.TID 0000.0001) %MON ad_time_secondsf             =   2.2394880000000E+11
(PID.TID 0000.0001) %MON ad_dynstat_adeta_max         =   1.0919351957589E+09
(PID.TID 0000.0001) %MON ad_dynstat_adeta_min         =  -1.1351253328560E+09
(PID.TID 0000.0001) %MON ad_dynstat_adeta_mean        =  -1.7756973759393E+06
(PID.TID 0000.0001) %MON ad_dynstat_adeta_sd          =   1.5632173051406E+08
(PID.TID 0000.0001) %MON ad_dynstat_adeta_del2        =   4.9331255933194E+06
(PID.TID 0000.0001) %MON ad_dynstat_aduvel_max        =   1.8233872724386E+09
(PID.TID 0000.0001) %MON ad_dynstat_aduvel_min        =  -1.6225180929052E+09
(PID.TID 0000.0001) %MON ad_dynstat_aduvel_mean       =   2.8083425105525E+06
(PID.TID 0000.0001) %MON ad_dynstat_aduvel_sd         =   1.3534085443917E+08
(PID.TID 0000.0001) %MON ad_dynstat_aduvel_del2       =   6.3598017545188E+05
(PID.TID 0000.0001) %MON ad_dynstat_advvel_max        =   1.8127864339269E+09
(PID.TID 0000.0001) %MON ad_dynstat_advvel_min        =  -3.2883869405696E+09
(PID.TID 0000.0001) %MON ad_dynstat_advvel_mean       =  -2.1886154566429E+07
(PID.TID 0000.0001) %MON ad_dynstat_advvel_sd         =   3.2045213416922E+08
(PID.TID 0000.0001) %MON ad_dynstat_advvel_del2       =   1.0771140102217E+06
(PID.TID 0000.0001) %MON ad_dynstat_adwvel_max        =   1.4474008926033E+12
(PID.TID 0000.0001) %MON ad_dynstat_adwvel_min        =  -2.9011303405216E+12
(PID.TID 0000.0001) %MON ad_dynstat_adwvel_mean       =   3.3108863919177E+09
(PID.TID 0000.0001) %MON ad_dynstat_adwvel_sd         =   6.4081653137018E+10
(PID.TID 0000.0001) %MON ad_dynstat_adwvel_del2       =   5.4071283328918E+08
(PID.TID 0000.0001) %MON ad_dynstat_adtheta_max       =   2.6004865833534E+09
(PID.TID 0000.0001) %MON ad_dynstat_adtheta_min       =  -4.8609810737600E+09
(PID.TID 0000.0001) %MON ad_dynstat_adtheta_mean      =  -4.3687534934168E+06
(PID.TID 0000.0001) %MON ad_dynstat_adtheta_sd        =   4.4057558308261E+07
(PID.TID 0000.0001) %MON ad_dynstat_adtheta_del2      =   5.3571724709266E+05
(PID.TID 0000.0001) %MON ad_dynstat_adsalt_max        =   2.8388451883381E+10
(PID.TID 0000.0001) %MON ad_dynstat_adsalt_min        =  -2.8646707634441E+10
(PID.TID 0000.0001) %MON ad_dynstat_adsalt_mean       =  -3.1109912298893E+06
(PID.TID 0000.0001) %MON ad_dynstat_adsalt_sd         =   9.6218780746348E+07
(PID.TID 0000.0001) %MON ad_dynstat_adsalt_del2       =   2.9444690707462E+06
(PID.TID 0000.0001) %MON ad_forcing_adqnet_max        =   0.0000000000000E+00
(PID.TID 0000.0001) %MON ad_forcing_adqnet_min        =   0.0000000000000E+00
(PID.TID 0000.0001) %MON ad_forcing_adqnet_mean       =   0.0000000000000E+00
(PID.TID 0000.0001) %MON ad_forcing_adqnet_sd         =   0.0000000000000E+00
(PID.TID 0000.0001) %MON ad_forcing_adqnet_del2       =   0.0000000000000E+00
(PID.TID 0000.0001) %MON ad_forcing_adempmr_max       =   0.0000000000000E+00
(PID.TID 0000.0001) %MON ad_forcing_adempmr_min       =   0.0000000000000E+00
(PID.TID 0000.0001) %MON ad_forcing_adempmr_mean      =   0.0000000000000E+00
(PID.TID 0000.0001) %MON ad_forcing_adempmr_sd        =   0.0000000000000E+00
(PID.TID 0000.0001) %MON ad_forcing_adempmr_del2      =   0.0000000000000E+00
(PID.TID 0000.0001) %MON ad_forcing_adfu_max          =   0.0000000000000E+00
(PID.TID 0000.0001) %MON ad_forcing_adfu_min          =   0.0000000000000E+00
(PID.TID 0000.0001) %MON ad_forcing_adfu_mean         =   0.0000000000000E+00
(PID.TID 0000.0001) %MON ad_forcing_adfu_sd           =   0.0000000000000E+00
(PID.TID 0000.0001) %MON ad_forcing_adfu_del2         =   0.0000000000000E+00
(PID.TID 0000.0001) %MON ad_forcing_adfv_max          =   0.0000000000000E+00
(PID.TID 0000.0001) %MON ad_forcing_adfv_min          =   0.0000000000000E+00
(PID.TID 0000.0001) %MON ad_forcing_adfv_mean         =   0.0000000000000E+00
(PID.TID 0000.0001) %MON ad_forcing_adfv_sd           =   0.0000000000000E+00
(PID.TID 0000.0001) %MON ad_forcing_adfv_del2         =   0.0000000000000E+00
(PID.TID 0000.0001) // =======================================================
(PID.TID 0000.0001) // End MONITOR dynamic field statistics
(PID.TID 0000.0001) // =======================================================
(PID.TID 0000.0001) // =======================================================
(PID.TID 0000.0001) // Begin MONITOR adptracer field statistics
(PID.TID 0000.0001) // =======================================================
(PID.TID 0000.0001) %MON ad_trcstat_adptracer01_max   =   1.2067431341455E+09
(PID.TID 0000.0001) %MON ad_trcstat_adptracer01_min   =  -1.0014367626824E+11
(PID.TID 0000.0001) %MON ad_trcstat_adptracer01_mean  =  -5.2285922414727E+08
(PID.TID 0000.0001) %MON ad_trcstat_adptracer01_sd    =   4.9023020162946E+09
(PID.TID 0000.0001) %MON ad_trcstat_adptracer01_del2  =   2.0336287486720E+07
(PID.TID 0000.0001) %MON ad_trcstat_adptracer02_max   =   8.7370060884302E+10
(PID.TID 0000.0001) %MON ad_trcstat_adptracer02_min   =  -1.0126535816479E+09
(PID.TID 0000.0001) %MON ad_trcstat_adptracer02_mean  =   4.3165092565071E+08
(PID.TID 0000.0001) %MON ad_trcstat_adptracer02_sd    =   4.0912943862531E+09
(PID.TID 0000.0001) %MON ad_trcstat_adptracer02_del2  =   1.6995535522182E+07
(PID.TID 0000.0001) %MON ad_trcstat_adptracer03_max   =   1.0005777265467E+09
(PID.TID 0000.0001) %MON ad_trcstat_adptracer03_min   =  -8.6930888803455E+10
(PID.TID 0000.0001) %MON ad_trcstat_adptracer03_mean  =  -3.3810543150438E+08
(PID.TID 0000.0001) %MON ad_trcstat_adptracer03_sd    =   3.4904167024662E+09
(PID.TID 0000.0001) %MON ad_trcstat_adptracer03_del2  =   1.5860174725236E+07
(PID.TID 0000.0001) %MON ad_trcstat_adptracer04_max   =   9.1466093122344E+08
(PID.TID 0000.0001) %MON ad_trcstat_adptracer04_min   =  -5.9573780168773E+10
(PID.TID 0000.0001) %MON ad_trcstat_adptracer04_mean  =  -3.0841840216220E+08
(PID.TID 0000.0001) %MON ad_trcstat_adptracer04_sd    =   2.8875939141393E+09
(PID.TID 0000.0001) %MON ad_trcstat_adptracer04_del2  =   1.2904811059729E+07
(PID.TID 0000.0001) %MON ad_trcstat_adptracer05_max   =   0.0000000000000E+00
(PID.TID 0000.0001) %MON ad_trcstat_adptracer05_min   =   0.0000000000000E+00
(PID.TID 0000.0001) %MON ad_trcstat_adptracer05_mean  =   0.0000000000000E+00
(PID.TID 0000.0001) %MON ad_trcstat_adptracer05_sd    =   0.0000000000000E+00
(PID.TID 0000.0001) %MON ad_trcstat_adptracer05_del2  =   0.0000000000000E+00
(PID.TID 0000.0001) // =======================================================
(PID.TID 0000.0001) // End MONITOR ptracers field statistics
(PID.TID 0000.0001) // =======================================================
(PID.TID 0000.0001) // =======================================================
(PID.TID 0000.0001) // Gradient-check starts (grdchk_main)
(PID.TID 0000.0001) // =======================================================
(PID.TID 0000.0001) grdchk reference fc: fcref       = -6.05804087721186E+11
grad-res -------------------------------
 grad-res  proc    #    i    j    k   bi   bj iobc       fc ref            fc + eps           fc - eps
 grad-res  proc    #    i    j    k   bi   bj iobc      adj grad            fd grad          1 - fd/adj
(PID.TID 0000.0001) ====== Starts gradient-check number   1 (=ichknum) =======
 ph-test icomp, ncvarcomp, ichknum            1       55673           1
 ph-grd _loc: bi, bj, icomptest, ichknum            1           1           0           1
 ph-grd -->hit<--           61           5           1           1
(PID.TID 0000.0001) grdchk pos: i,j,k=   61    5    1 ; bi,bj=   1   1 ; iobc=  1 ; rec=   1
(PID.TID 0000.0001)  simulName=>Tutorial Biogeo<
(PID.TID 0000.0001)  nRecords = 123 ; filePrec =  64 ; fileIter =   5184000
(PID.TID 0000.0001)     nDims =   2 , dims:
(PID.TID 0000.0001)    1: 128   1 128
(PID.TID 0000.0001)    2:  64   1  64
(PID.TID 0000.0001)     nFlds =  11 , nFl3D =   8 , fields:
(PID.TID 0000.0001)  >Uvel    < >Vvel    < >Theta   < >Salt    < >GuNm1   < >GvNm1   < >GtNm1   < >GsNm1   < >EtaN    < >dEtaHdt < >EtaH    <
(PID.TID 0000.0001) missingVal=  1.00000000000000E+00 ; nTimRec =   0 , timeList:
(PID.TID 0000.0001) READ_MFLDS_3D_RL: read field: "Uvel    ", #   1 in fldList, rec=   1
(PID.TID 0000.0001) READ_MFLDS_3D_RL: read field: "Vvel    ", #   2 in fldList, rec=   2
(PID.TID 0000.0001) READ_MFLDS_3D_RL: read field: "Theta   ", #   3 in fldList, rec=   3
(PID.TID 0000.0001) READ_MFLDS_3D_RL: read field: "Salt    ", #   4 in fldList, rec=   4
(PID.TID 0000.0001) READ_MFLDS_3D_RL: read field: "GuNm1   ", #   5 in fldList, rec=   5
(PID.TID 0000.0001) READ_MFLDS_3D_RL: read field: "GvNm1   ", #   6 in fldList, rec=   6
(PID.TID 0000.0001) READ_MFLDS_3D_RL: read field: "GtNm1   ", #   7 in fldList, rec=   7
(PID.TID 0000.0001) READ_MFLDS_3D_RL: read field: "GsNm1   ", #   8 in fldList, rec=   8
(PID.TID 0000.0001) READ_MFLDS_3D_RL: read field: "EtaN    ", #   9 in fldList, rec= 121
(PID.TID 0000.0001) READ_MFLDS_CHECK: - normal end ; reset MFLDS file-name: pickup.0005184000
(PID.TID 0000.0001)  simulName=>Tutorial Biogeo<
(PID.TID 0000.0001)  nRecords =   5 ; filePrec =  64 ; fileIter =   5184000
(PID.TID 0000.0001)     nDims =   3 , dims:
(PID.TID 0000.0001)    1: 128   1 128
(PID.TID 0000.0001)    2:  64   1  64
(PID.TID 0000.0001)    3:  15   1  15
(PID.TID 0000.0001)     nFlds =   5 , nFl3D =   0 , fields:
(PID.TID 0000.0001)  >pTr01   < >pTr02   < >pTr03   < >pTr04   < >pTr05   <
(PID.TID 0000.0001) missingVal=  1.00000000000000E+00 ; nTimRec =   0 , timeList:
(PID.TID 0000.0001) READ_MFLDS_3D_RL: read field: "pTr01   ", #   1 in fldList, rec=   1
(PID.TID 0000.0001) READ_MFLDS_3D_RL: read field: "pTr02   ", #   2 in fldList, rec=   2
(PID.TID 0000.0001) READ_MFLDS_3D_RL: read field: "pTr03   ", #   3 in fldList, rec=   3
(PID.TID 0000.0001) READ_MFLDS_3D_RL: read field: "pTr04   ", #   4 in fldList, rec=   4
(PID.TID 0000.0001) READ_MFLDS_3D_RL: read field: "pTr05   ", #   5 in fldList, rec=   5
(PID.TID 0000.0001) READ_MFLDS_CHECK: - normal end ; reset MFLDS file-name: pickup_ptracers.0005184000
 DIC_SURFFORCING_INIT, it=   5184000 : Reading new data, i0,i1=   12    1
 QQ alpha before  9.70000000000000011E-011
(PID.TID 0000.0001) // =======================================================
(PID.TID 0000.0001) // Model current state
(PID.TID 0000.0001) // =======================================================
(PID.TID 0000.0001) 
 EXTERNAL_FIELDS_LOAD, it=   5184000 : Reading new data, i0,i1=   12    1 (prev=   12    0 )
 DIC_FIELDS_LOAD, it=   5184000 : Reading new data, i0,i1=   12    1 (prev=   12    0 )
(PID.TID 0000.0001) SOLVE_FOR_PRESSURE: putPmEinXvector =    F
 cg2d: Sum(rhs),rhsMax =  -2.93465216572031E-07  8.32814987068962E+00
 mean surface dic   1.9723249740630113        34.855624493691671     
 QQ myiter, totcost =      5184001  -149896021945.79300     
 cg2d: Sum(rhs),rhsMax =  -2.93547209651024E-07  8.32580875881018E+00
 mean surface dic   1.9723041038757048        34.855731590863229     
 QQ myiter, totcost =      5184002  -302787620637.05316     
 cg2d: Sum(rhs),rhsMax =  -2.93677398843784E-07  8.32215434141113E+00
 mean surface dic   1.9722740564961365        34.855734951310588     
 QQ myiter, totcost =      5184003  -454258131464.04462     
 cg2d: Sum(rhs),rhsMax =  -2.93793583239221E-07  8.31886491394280E+00
 mean surface dic   1.9722438449590007        34.855719155302502     
 QQ myiter, totcost =      5184004  -605804087810.80200     
(PID.TID 0000.0001) Did not write pickup because writePickupAtEnd = FALSE
 --> objf_test(bi,bj)   =  0.000000000000000D+00
 --> objf_tracer(bi,bj) =  0.000000000000000D+00
 --> objf_atl(bi,bj)    =  0.000000000000000D+00
 --> objf_test(bi,bj)   =  0.000000000000000D+00
 --> objf_tracer(bi,bj) =  0.000000000000000D+00
 --> objf_atl(bi,bj)    =  0.000000000000000D+00
 --> objf_test(bi,bj)   =  0.000000000000000D+00
 --> objf_tracer(bi,bj) =  0.000000000000000D+00
 --> objf_atl(bi,bj)    =  0.000000000000000D+00
 --> objf_test(bi,bj)   =  0.000000000000000D+00
 --> objf_tracer(bi,bj) =  0.000000000000000D+00
 --> objf_atl(bi,bj)    =  0.000000000000000D+00
  local fc =  0.000000000000000D+00
 global fc = -0.605804087810802D+12
(PID.TID 0000.0001) grdchk perturb(+)fc: fcpertplus  = -6.05804087810802E+11
(PID.TID 0000.0001)  simulName=>Tutorial Biogeo<
(PID.TID 0000.0001)  nRecords = 123 ; filePrec =  64 ; fileIter =   5184000
(PID.TID 0000.0001)     nDims =   2 , dims:
(PID.TID 0000.0001)    1: 128   1 128
(PID.TID 0000.0001)    2:  64   1  64
(PID.TID 0000.0001)     nFlds =  11 , nFl3D =   8 , fields:
(PID.TID 0000.0001)  >Uvel    < >Vvel    < >Theta   < >Salt    < >GuNm1   < >GvNm1   < >GtNm1   < >GsNm1   < >EtaN    < >dEtaHdt < >EtaH    <
(PID.TID 0000.0001) missingVal=  1.00000000000000E+00 ; nTimRec =   0 , timeList:
(PID.TID 0000.0001) READ_MFLDS_3D_RL: read field: "Uvel    ", #   1 in fldList, rec=   1
(PID.TID 0000.0001) READ_MFLDS_3D_RL: read field: "Vvel    ", #   2 in fldList, rec=   2
(PID.TID 0000.0001) READ_MFLDS_3D_RL: read field: "Theta   ", #   3 in fldList, rec=   3
(PID.TID 0000.0001) READ_MFLDS_3D_RL: read field: "Salt    ", #   4 in fldList, rec=   4
(PID.TID 0000.0001) READ_MFLDS_3D_RL: read field: "GuNm1   ", #   5 in fldList, rec=   5
(PID.TID 0000.0001) READ_MFLDS_3D_RL: read field: "GvNm1   ", #   6 in fldList, rec=   6
(PID.TID 0000.0001) READ_MFLDS_3D_RL: read field: "GtNm1   ", #   7 in fldList, rec=   7
(PID.TID 0000.0001) READ_MFLDS_3D_RL: read field: "GsNm1   ", #   8 in fldList, rec=   8
(PID.TID 0000.0001) READ_MFLDS_3D_RL: read field: "EtaN    ", #   9 in fldList, rec= 121
(PID.TID 0000.0001) READ_MFLDS_CHECK: - normal end ; reset MFLDS file-name: pickup.0005184000
(PID.TID 0000.0001)  simulName=>Tutorial Biogeo<
(PID.TID 0000.0001)  nRecords =   5 ; filePrec =  64 ; fileIter =   5184000
(PID.TID 0000.0001)     nDims =   3 , dims:
(PID.TID 0000.0001)    1: 128   1 128
(PID.TID 0000.0001)    2:  64   1  64
(PID.TID 0000.0001)    3:  15   1  15
(PID.TID 0000.0001)     nFlds =   5 , nFl3D =   0 , fields:
(PID.TID 0000.0001)  >pTr01   < >pTr02   < >pTr03   < >pTr04   < >pTr05   <
(PID.TID 0000.0001) missingVal=  1.00000000000000E+00 ; nTimRec =   0 , timeList:
(PID.TID 0000.0001) READ_MFLDS_3D_RL: read field: "pTr01   ", #   1 in fldList, rec=   1
(PID.TID 0000.0001) READ_MFLDS_3D_RL: read field: "pTr02   ", #   2 in fldList, rec=   2
(PID.TID 0000.0001) READ_MFLDS_3D_RL: read field: "pTr03   ", #   3 in fldList, rec=   3
(PID.TID 0000.0001) READ_MFLDS_3D_RL: read field: "pTr04   ", #   4 in fldList, rec=   4
(PID.TID 0000.0001) READ_MFLDS_3D_RL: read field: "pTr05   ", #   5 in fldList, rec=   5
(PID.TID 0000.0001) READ_MFLDS_CHECK: - normal end ; reset MFLDS file-name: pickup_ptracers.0005184000
 DIC_SURFFORCING_INIT, it=   5184000 : Reading new data, i0,i1=   12    1
 QQ alpha before  9.70000000000000011E-011
(PID.TID 0000.0001) // =======================================================
(PID.TID 0000.0001) // Model current state
(PID.TID 0000.0001) // =======================================================
(PID.TID 0000.0001) 
 EXTERNAL_FIELDS_LOAD, it=   5184000 : Reading new data, i0,i1=   12    1 (prev=   12    0 )
 DIC_FIELDS_LOAD, it=   5184000 : Reading new data, i0,i1=   12    1 (prev=   12    0 )
(PID.TID 0000.0001) SOLVE_FOR_PRESSURE: putPmEinXvector =    F
 cg2d: Sum(rhs),rhsMax =  -2.93465216572031E-07  8.32814987068962E+00
 mean surface dic   1.9723249740652711        34.855624493690271     
 QQ myiter, totcost =      5184001  -149896021805.81949     
 cg2d: Sum(rhs),rhsMax =  -2.93547209651024E-07  8.32580875881018E+00
 mean surface dic   1.9723041038797005        34.855731590862639     
 QQ myiter, totcost =      5184002  -302787620465.38019     
 cg2d: Sum(rhs),rhsMax =  -2.93677398843784E-07  8.32215434141113E+00
 mean surface dic   1.9722740565015220        34.855734951310467     
 QQ myiter, totcost =      5184003  -454258131269.19397     
 cg2d: Sum(rhs),rhsMax =  -2.93793146255439E-07  8.31886491394281E+00
 mean surface dic   1.9722438449654518        34.855719155302815     
 QQ myiter, totcost =      5184004  -605804087631.57935     
(PID.TID 0000.0001) Did not write pickup because writePickupAtEnd = FALSE
 --> objf_test(bi,bj)   =  0.000000000000000D+00
 --> objf_tracer(bi,bj) =  0.000000000000000D+00
 --> objf_atl(bi,bj)    =  0.000000000000000D+00
 --> objf_test(bi,bj)   =  0.000000000000000D+00
 --> objf_tracer(bi,bj) =  0.000000000000000D+00
 --> objf_atl(bi,bj)    =  0.000000000000000D+00
 --> objf_test(bi,bj)   =  0.000000000000000D+00
 --> objf_tracer(bi,bj) =  0.000000000000000D+00
 --> objf_atl(bi,bj)    =  0.000000000000000D+00
 --> objf_test(bi,bj)   =  0.000000000000000D+00
 --> objf_tracer(bi,bj) =  0.000000000000000D+00
 --> objf_atl(bi,bj)    =  0.000000000000000D+00
  local fc =  0.000000000000000D+00
 global fc = -0.605804087631579D+12
(PID.TID 0000.0001) grdchk perturb(-)fc: fcpertminus = -6.05804087631579E+11
grad-res -------------------------------
 grad-res     0    1   61    5    1    1    1    1  -6.05804087721E+11 -6.05804087811E+11 -6.05804087632E+11
 grad-res     0    1    1    1    0    1    1    1  -8.96962428656E+06 -8.96113281250E+06  9.46692278983E-04
(PID.TID 0000.0001)  ADM  ref_cost_function      = -6.05804087721186E+11
(PID.TID 0000.0001)  ADM  adjoint_gradient       = -8.96962428655746E+06
(PID.TID 0000.0001)  ADM  finite-diff_grad       = -8.96113281250000E+06
(PID.TID 0000.0001) ====== End of gradient-check number   1 (ierr=  0) =======
(PID.TID 0000.0001) ====== Starts gradient-check number   2 (=ichknum) =======
 ph-test icomp, ncvarcomp, ichknum            2       55673           2
 ph-grd _loc: bi, bj, icomptest, ichknum            1           1           1           2
 ph-grd -->hit<--           62           5           1           1
(PID.TID 0000.0001) grdchk pos: i,j,k=   62    5    1 ; bi,bj=   1   1 ; iobc=  1 ; rec=   1
(PID.TID 0000.0001)  simulName=>Tutorial Biogeo<
(PID.TID 0000.0001)  nRecords = 123 ; filePrec =  64 ; fileIter =   5184000
(PID.TID 0000.0001)     nDims =   2 , dims:
(PID.TID 0000.0001)    1: 128   1 128
(PID.TID 0000.0001)    2:  64   1  64
(PID.TID 0000.0001)     nFlds =  11 , nFl3D =   8 , fields:
(PID.TID 0000.0001)  >Uvel    < >Vvel    < >Theta   < >Salt    < >GuNm1   < >GvNm1   < >GtNm1   < >GsNm1   < >EtaN    < >dEtaHdt < >EtaH    <
(PID.TID 0000.0001) missingVal=  1.00000000000000E+00 ; nTimRec =   0 , timeList:
(PID.TID 0000.0001) READ_MFLDS_3D_RL: read field: "Uvel    ", #   1 in fldList, rec=   1
(PID.TID 0000.0001) READ_MFLDS_3D_RL: read field: "Vvel    ", #   2 in fldList, rec=   2
(PID.TID 0000.0001) READ_MFLDS_3D_RL: read field: "Theta   ", #   3 in fldList, rec=   3
(PID.TID 0000.0001) READ_MFLDS_3D_RL: read field: "Salt    ", #   4 in fldList, rec=   4
(PID.TID 0000.0001) READ_MFLDS_3D_RL: read field: "GuNm1   ", #   5 in fldList, rec=   5
(PID.TID 0000.0001) READ_MFLDS_3D_RL: read field: "GvNm1   ", #   6 in fldList, rec=   6
(PID.TID 0000.0001) READ_MFLDS_3D_RL: read field: "GtNm1   ", #   7 in fldList, rec=   7
(PID.TID 0000.0001) READ_MFLDS_3D_RL: read field: "GsNm1   ", #   8 in fldList, rec=   8
(PID.TID 0000.0001) READ_MFLDS_3D_RL: read field: "EtaN    ", #   9 in fldList, rec= 121
(PID.TID 0000.0001) READ_MFLDS_CHECK: - normal end ; reset MFLDS file-name: pickup.0005184000
(PID.TID 0000.0001)  simulName=>Tutorial Biogeo<
(PID.TID 0000.0001)  nRecords =   5 ; filePrec =  64 ; fileIter =   5184000
(PID.TID 0000.0001)     nDims =   3 , dims:
(PID.TID 0000.0001)    1: 128   1 128
(PID.TID 0000.0001)    2:  64   1  64
(PID.TID 0000.0001)    3:  15   1  15
(PID.TID 0000.0001)     nFlds =   5 , nFl3D =   0 , fields:
(PID.TID 0000.0001)  >pTr01   < >pTr02   < >pTr03   < >pTr04   < >pTr05   <
(PID.TID 0000.0001) missingVal=  1.00000000000000E+00 ; nTimRec =   0 , timeList:
(PID.TID 0000.0001) READ_MFLDS_3D_RL: read field: "pTr01   ", #   1 in fldList, rec=   1
(PID.TID 0000.0001) READ_MFLDS_3D_RL: read field: "pTr02   ", #   2 in fldList, rec=   2
(PID.TID 0000.0001) READ_MFLDS_3D_RL: read field: "pTr03   ", #   3 in fldList, rec=   3
(PID.TID 0000.0001) READ_MFLDS_3D_RL: read field: "pTr04   ", #   4 in fldList, rec=   4
(PID.TID 0000.0001) READ_MFLDS_3D_RL: read field: "pTr05   ", #   5 in fldList, rec=   5
(PID.TID 0000.0001) READ_MFLDS_CHECK: - normal end ; reset MFLDS file-name: pickup_ptracers.0005184000
 DIC_SURFFORCING_INIT, it=   5184000 : Reading new data, i0,i1=   12    1
 QQ alpha before  9.70000000000000011E-011
(PID.TID 0000.0001) // =======================================================
(PID.TID 0000.0001) // Model current state
(PID.TID 0000.0001) // =======================================================
(PID.TID 0000.0001) 
 EXTERNAL_FIELDS_LOAD, it=   5184000 : Reading new data, i0,i1=   12    1 (prev=   12    0 )
 DIC_FIELDS_LOAD, it=   5184000 : Reading new data, i0,i1=   12    1 (prev=   12    0 )
(PID.TID 0000.0001) SOLVE_FOR_PRESSURE: putPmEinXvector =    F
 cg2d: Sum(rhs),rhsMax =  -2.93465216572031E-07  8.32814987068962E+00
 mean surface dic   1.9723249740638535        34.855624493691508     
 QQ myiter, totcost =      5184001  -149896021978.58102     
 cg2d: Sum(rhs),rhsMax =  -2.93547149254891E-07  8.32580875881018E+00
 mean surface dic   1.9723041038771196        34.855731590863627     
 QQ myiter, totcost =      5184002  -302787620710.52246     
 cg2d: Sum(rhs),rhsMax =  -2.93677555163185E-07  8.32215434141113E+00
 mean surface dic   1.9722740564979719        34.855734951311341     
 QQ myiter, totcost =      5184003  -454258131592.40674     
 cg2d: Sum(rhs),rhsMax =  -2.93793199546144E-07  8.31886491394281E+00
 mean surface dic   1.9722438449611051        34.855719155303582     
 QQ myiter, totcost =      5184004  -605804088001.07373     
(PID.TID 0000.0001) Did not write pickup because writePickupAtEnd = FALSE
 --> objf_test(bi,bj)   =  0.000000000000000D+00
 --> objf_tracer(bi,bj) =  0.000000000000000D+00
 --> objf_atl(bi,bj)    =  0.000000000000000D+00
 --> objf_test(bi,bj)   =  0.000000000000000D+00
 --> objf_tracer(bi,bj) =  0.000000000000000D+00
 --> objf_atl(bi,bj)    =  0.000000000000000D+00
 --> objf_test(bi,bj)   =  0.000000000000000D+00
 --> objf_tracer(bi,bj) =  0.000000000000000D+00
 --> objf_atl(bi,bj)    =  0.000000000000000D+00
 --> objf_test(bi,bj)   =  0.000000000000000D+00
 --> objf_tracer(bi,bj) =  0.000000000000000D+00
 --> objf_atl(bi,bj)    =  0.000000000000000D+00
  local fc =  0.000000000000000D+00
 global fc = -0.605804088001074D+12
(PID.TID 0000.0001) grdchk perturb(+)fc: fcpertplus  = -6.05804088001074E+11
(PID.TID 0000.0001)  simulName=>Tutorial Biogeo<
(PID.TID 0000.0001)  nRecords = 123 ; filePrec =  64 ; fileIter =   5184000
(PID.TID 0000.0001)     nDims =   2 , dims:
(PID.TID 0000.0001)    1: 128   1 128
(PID.TID 0000.0001)    2:  64   1  64
(PID.TID 0000.0001)     nFlds =  11 , nFl3D =   8 , fields:
(PID.TID 0000.0001)  >Uvel    < >Vvel    < >Theta   < >Salt    < >GuNm1   < >GvNm1   < >GtNm1   < >GsNm1   < >EtaN    < >dEtaHdt < >EtaH    <
(PID.TID 0000.0001) missingVal=  1.00000000000000E+00 ; nTimRec =   0 , timeList:
(PID.TID 0000.0001) READ_MFLDS_3D_RL: read field: "Uvel    ", #   1 in fldList, rec=   1
(PID.TID 0000.0001) READ_MFLDS_3D_RL: read field: "Vvel    ", #   2 in fldList, rec=   2
(PID.TID 0000.0001) READ_MFLDS_3D_RL: read field: "Theta   ", #   3 in fldList, rec=   3
(PID.TID 0000.0001) READ_MFLDS_3D_RL: read field: "Salt    ", #   4 in fldList, rec=   4
(PID.TID 0000.0001) READ_MFLDS_3D_RL: read field: "GuNm1   ", #   5 in fldList, rec=   5
(PID.TID 0000.0001) READ_MFLDS_3D_RL: read field: "GvNm1   ", #   6 in fldList, rec=   6
(PID.TID 0000.0001) READ_MFLDS_3D_RL: read field: "GtNm1   ", #   7 in fldList, rec=   7
(PID.TID 0000.0001) READ_MFLDS_3D_RL: read field: "GsNm1   ", #   8 in fldList, rec=   8
(PID.TID 0000.0001) READ_MFLDS_3D_RL: read field: "EtaN    ", #   9 in fldList, rec= 121
(PID.TID 0000.0001) READ_MFLDS_CHECK: - normal end ; reset MFLDS file-name: pickup.0005184000
(PID.TID 0000.0001)  simulName=>Tutorial Biogeo<
(PID.TID 0000.0001)  nRecords =   5 ; filePrec =  64 ; fileIter =   5184000
(PID.TID 0000.0001)     nDims =   3 , dims:
(PID.TID 0000.0001)    1: 128   1 128
(PID.TID 0000.0001)    2:  64   1  64
(PID.TID 0000.0001)    3:  15   1  15
(PID.TID 0000.0001)     nFlds =   5 , nFl3D =   0 , fields:
(PID.TID 0000.0001)  >pTr01   < >pTr02   < >pTr03   < >pTr04   < >pTr05   <
(PID.TID 0000.0001) missingVal=  1.00000000000000E+00 ; nTimRec =   0 , timeList:
(PID.TID 0000.0001) READ_MFLDS_3D_RL: read field: "pTr01   ", #   1 in fldList, rec=   1
(PID.TID 0000.0001) READ_MFLDS_3D_RL: read field: "pTr02   ", #   2 in fldList, rec=   2
(PID.TID 0000.0001) READ_MFLDS_3D_RL: read field: "pTr03   ", #   3 in fldList, rec=   3
(PID.TID 0000.0001) READ_MFLDS_3D_RL: read field: "pTr04   ", #   4 in fldList, rec=   4
(PID.TID 0000.0001) READ_MFLDS_3D_RL: read field: "pTr05   ", #   5 in fldList, rec=   5
(PID.TID 0000.0001) READ_MFLDS_CHECK: - normal end ; reset MFLDS file-name: pickup_ptracers.0005184000
 DIC_SURFFORCING_INIT, it=   5184000 : Reading new data, i0,i1=   12    1
 QQ alpha before  9.70000000000000011E-011
(PID.TID 0000.0001) // =======================================================
(PID.TID 0000.0001) // Model current state
(PID.TID 0000.0001) // =======================================================
(PID.TID 0000.0001) 
 EXTERNAL_FIELDS_LOAD, it=   5184000 : Reading new data, i0,i1=   12    1 (prev=   12    0 )
 DIC_FIELDS_LOAD, it=   5184000 : Reading new data, i0,i1=   12    1 (prev=   12    0 )
(PID.TID 0000.0001) SOLVE_FOR_PRESSURE: putPmEinXvector =    F
 cg2d: Sum(rhs),rhsMax =  -2.93465216572031E-07  8.32814987068962E+00
 mean surface dic   1.9723249740644289        34.855624493690435     
 QQ myiter, totcost =      5184001  -149896021773.02884     
 cg2d: Sum(rhs),rhsMax =  -2.93547170571173E-07  8.32580875881018E+00
 mean surface dic   1.9723041038782856        34.855731590862248     
 QQ myiter, totcost =      5184002  -302787620391.90625     
 cg2d: Sum(rhs),rhsMax =  -2.93677477003484E-07  8.32215434141113E+00
 mean surface dic   1.9722740564996868        34.855734951309707     
 QQ myiter, totcost =      5184003  -454258131140.82507     
 cg2d: Sum(rhs),rhsMax =  -2.93793089412020E-07  8.31886491394280E+00
 mean surface dic   1.9722438449633475        34.855719155301742     
 QQ myiter, totcost =      5184004  -605804087441.30005     
(PID.TID 0000.0001) Did not write pickup because writePickupAtEnd = FALSE
 --> objf_test(bi,bj)   =  0.000000000000000D+00
 --> objf_tracer(bi,bj) =  0.000000000000000D+00
 --> objf_atl(bi,bj)    =  0.000000000000000D+00
 --> objf_test(bi,bj)   =  0.000000000000000D+00
 --> objf_tracer(bi,bj) =  0.000000000000000D+00
 --> objf_atl(bi,bj)    =  0.000000000000000D+00
 --> objf_test(bi,bj)   =  0.000000000000000D+00
 --> objf_tracer(bi,bj) =  0.000000000000000D+00
 --> objf_atl(bi,bj)    =  0.000000000000000D+00
 --> objf_test(bi,bj)   =  0.000000000000000D+00
 --> objf_tracer(bi,bj) =  0.000000000000000D+00
 --> objf_atl(bi,bj)    =  0.000000000000000D+00
  local fc =  0.000000000000000D+00
 global fc = -0.605804087441300D+12
(PID.TID 0000.0001) grdchk perturb(-)fc: fcpertminus = -6.05804087441300E+11
grad-res -------------------------------
 grad-res     0    2   62    5    1    1    1    1  -6.05804087721E+11 -6.05804088001E+11 -6.05804087441E+11
 grad-res     0    2    2    2    0    1    1    1  -2.79862323518E+07 -2.79886840820E+07 -8.76048688800E-05
(PID.TID 0000.0001)  ADM  ref_cost_function      = -6.05804087721186E+11
(PID.TID 0000.0001)  ADM  adjoint_gradient       = -2.79862323518156E+07
(PID.TID 0000.0001)  ADM  finite-diff_grad       = -2.79886840820312E+07
(PID.TID 0000.0001) ====== End of gradient-check number   2 (ierr=  0) =======
(PID.TID 0000.0001) ====== Starts gradient-check number   3 (=ichknum) =======
 ph-test icomp, ncvarcomp, ichknum            3       55673           3
 ph-grd _loc: bi, bj, icomptest, ichknum            1           1           2           3
 ph-grd -->hit<--           63           5           1           1
(PID.TID 0000.0001) grdchk pos: i,j,k=   63    5    1 ; bi,bj=   1   1 ; iobc=  1 ; rec=   1
(PID.TID 0000.0001)  simulName=>Tutorial Biogeo<
(PID.TID 0000.0001)  nRecords = 123 ; filePrec =  64 ; fileIter =   5184000
(PID.TID 0000.0001)     nDims =   2 , dims:
(PID.TID 0000.0001)    1: 128   1 128
(PID.TID 0000.0001)    2:  64   1  64
(PID.TID 0000.0001)     nFlds =  11 , nFl3D =   8 , fields:
(PID.TID 0000.0001)  >Uvel    < >Vvel    < >Theta   < >Salt    < >GuNm1   < >GvNm1   < >GtNm1   < >GsNm1   < >EtaN    < >dEtaHdt < >EtaH    <
(PID.TID 0000.0001) missingVal=  1.00000000000000E+00 ; nTimRec =   0 , timeList:
(PID.TID 0000.0001) READ_MFLDS_3D_RL: read field: "Uvel    ", #   1 in fldList, rec=   1
(PID.TID 0000.0001) READ_MFLDS_3D_RL: read field: "Vvel    ", #   2 in fldList, rec=   2
(PID.TID 0000.0001) READ_MFLDS_3D_RL: read field: "Theta   ", #   3 in fldList, rec=   3
(PID.TID 0000.0001) READ_MFLDS_3D_RL: read field: "Salt    ", #   4 in fldList, rec=   4
(PID.TID 0000.0001) READ_MFLDS_3D_RL: read field: "GuNm1   ", #   5 in fldList, rec=   5
(PID.TID 0000.0001) READ_MFLDS_3D_RL: read field: "GvNm1   ", #   6 in fldList, rec=   6
(PID.TID 0000.0001) READ_MFLDS_3D_RL: read field: "GtNm1   ", #   7 in fldList, rec=   7
(PID.TID 0000.0001) READ_MFLDS_3D_RL: read field: "GsNm1   ", #   8 in fldList, rec=   8
(PID.TID 0000.0001) READ_MFLDS_3D_RL: read field: "EtaN    ", #   9 in fldList, rec= 121
(PID.TID 0000.0001) READ_MFLDS_CHECK: - normal end ; reset MFLDS file-name: pickup.0005184000
(PID.TID 0000.0001)  simulName=>Tutorial Biogeo<
(PID.TID 0000.0001)  nRecords =   5 ; filePrec =  64 ; fileIter =   5184000
(PID.TID 0000.0001)     nDims =   3 , dims:
(PID.TID 0000.0001)    1: 128   1 128
(PID.TID 0000.0001)    2:  64   1  64
(PID.TID 0000.0001)    3:  15   1  15
(PID.TID 0000.0001)     nFlds =   5 , nFl3D =   0 , fields:
(PID.TID 0000.0001)  >pTr01   < >pTr02   < >pTr03   < >pTr04   < >pTr05   <
(PID.TID 0000.0001) missingVal=  1.00000000000000E+00 ; nTimRec =   0 , timeList:
(PID.TID 0000.0001) READ_MFLDS_3D_RL: read field: "pTr01   ", #   1 in fldList, rec=   1
(PID.TID 0000.0001) READ_MFLDS_3D_RL: read field: "pTr02   ", #   2 in fldList, rec=   2
(PID.TID 0000.0001) READ_MFLDS_3D_RL: read field: "pTr03   ", #   3 in fldList, rec=   3
(PID.TID 0000.0001) READ_MFLDS_3D_RL: read field: "pTr04   ", #   4 in fldList, rec=   4
(PID.TID 0000.0001) READ_MFLDS_3D_RL: read field: "pTr05   ", #   5 in fldList, rec=   5
(PID.TID 0000.0001) READ_MFLDS_CHECK: - normal end ; reset MFLDS file-name: pickup_ptracers.0005184000
 DIC_SURFFORCING_INIT, it=   5184000 : Reading new data, i0,i1=   12    1
 QQ alpha before  9.70000000000000011E-011
(PID.TID 0000.0001) // =======================================================
(PID.TID 0000.0001) // Model current state
(PID.TID 0000.0001) // =======================================================
(PID.TID 0000.0001) 
 EXTERNAL_FIELDS_LOAD, it=   5184000 : Reading new data, i0,i1=   12    1 (prev=   12    0 )
 DIC_FIELDS_LOAD, it=   5184000 : Reading new data, i0,i1=   12    1 (prev=   12    0 )
(PID.TID 0000.0001) SOLVE_FOR_PRESSURE: putPmEinXvector =    F
 cg2d: Sum(rhs),rhsMax =  -2.93465216572031E-07  8.32814987068962E+00
 mean surface dic   1.9723249740639326        34.855624493691657     
 QQ myiter, totcost =      5184001  -149896021978.15500     
 cg2d: Sum(rhs),rhsMax =  -2.93547095964186E-07  8.32580875881018E+00
 mean surface dic   1.9723041038772908        34.855731590863968     
 QQ myiter, totcost =      5184002  -302787620713.46399     
 cg2d: Sum(rhs),rhsMax =  -2.93677405949211E-07  8.32215434141113E+00
 mean surface dic   1.9722740564982251        34.855734951311881     
 QQ myiter, totcost =      5184003  -454258131601.02942     
 cg2d: Sum(rhs),rhsMax =  -2.93793252836849E-07  8.31886491394281E+00
 mean surface dic   1.9722438449614377        34.855719155304314     
 QQ myiter, totcost =      5184004  -605804088018.06519     
(PID.TID 0000.0001) Did not write pickup because writePickupAtEnd = FALSE
 --> objf_test(bi,bj)   =  0.000000000000000D+00
 --> objf_tracer(bi,bj) =  0.000000000000000D+00
 --> objf_atl(bi,bj)    =  0.000000000000000D+00
 --> objf_test(bi,bj)   =  0.000000000000000D+00
 --> objf_tracer(bi,bj) =  0.000000000000000D+00
 --> objf_atl(bi,bj)    =  0.000000000000000D+00
 --> objf_test(bi,bj)   =  0.000000000000000D+00
 --> objf_tracer(bi,bj) =  0.000000000000000D+00
 --> objf_atl(bi,bj)    =  0.000000000000000D+00
 --> objf_test(bi,bj)   =  0.000000000000000D+00
 --> objf_tracer(bi,bj) =  0.000000000000000D+00
 --> objf_atl(bi,bj)    =  0.000000000000000D+00
  local fc =  0.000000000000000D+00
 global fc = -0.605804088018065D+12
(PID.TID 0000.0001) grdchk perturb(+)fc: fcpertplus  = -6.05804088018065E+11
(PID.TID 0000.0001)  simulName=>Tutorial Biogeo<
(PID.TID 0000.0001)  nRecords = 123 ; filePrec =  64 ; fileIter =   5184000
(PID.TID 0000.0001)     nDims =   2 , dims:
(PID.TID 0000.0001)    1: 128   1 128
(PID.TID 0000.0001)    2:  64   1  64
(PID.TID 0000.0001)     nFlds =  11 , nFl3D =   8 , fields:
(PID.TID 0000.0001)  >Uvel    < >Vvel    < >Theta   < >Salt    < >GuNm1   < >GvNm1   < >GtNm1   < >GsNm1   < >EtaN    < >dEtaHdt < >EtaH    <
(PID.TID 0000.0001) missingVal=  1.00000000000000E+00 ; nTimRec =   0 , timeList:
(PID.TID 0000.0001) READ_MFLDS_3D_RL: read field: "Uvel    ", #   1 in fldList, rec=   1
(PID.TID 0000.0001) READ_MFLDS_3D_RL: read field: "Vvel    ", #   2 in fldList, rec=   2
(PID.TID 0000.0001) READ_MFLDS_3D_RL: read field: "Theta   ", #   3 in fldList, rec=   3
(PID.TID 0000.0001) READ_MFLDS_3D_RL: read field: "Salt    ", #   4 in fldList, rec=   4
(PID.TID 0000.0001) READ_MFLDS_3D_RL: read field: "GuNm1   ", #   5 in fldList, rec=   5
(PID.TID 0000.0001) READ_MFLDS_3D_RL: read field: "GvNm1   ", #   6 in fldList, rec=   6
(PID.TID 0000.0001) READ_MFLDS_3D_RL: read field: "GtNm1   ", #   7 in fldList, rec=   7
(PID.TID 0000.0001) READ_MFLDS_3D_RL: read field: "GsNm1   ", #   8 in fldList, rec=   8
(PID.TID 0000.0001) READ_MFLDS_3D_RL: read field: "EtaN    ", #   9 in fldList, rec= 121
(PID.TID 0000.0001) READ_MFLDS_CHECK: - normal end ; reset MFLDS file-name: pickup.0005184000
(PID.TID 0000.0001)  simulName=>Tutorial Biogeo<
(PID.TID 0000.0001)  nRecords =   5 ; filePrec =  64 ; fileIter =   5184000
(PID.TID 0000.0001)     nDims =   3 , dims:
(PID.TID 0000.0001)    1: 128   1 128
(PID.TID 0000.0001)    2:  64   1  64
(PID.TID 0000.0001)    3:  15   1  15
(PID.TID 0000.0001)     nFlds =   5 , nFl3D =   0 , fields:
(PID.TID 0000.0001)  >pTr01   < >pTr02   < >pTr03   < >pTr04   < >pTr05   <
(PID.TID 0000.0001) missingVal=  1.00000000000000E+00 ; nTimRec =   0 , timeList:
(PID.TID 0000.0001) READ_MFLDS_3D_RL: read field: "pTr01   ", #   1 in fldList, rec=   1
(PID.TID 0000.0001) READ_MFLDS_3D_RL: read field: "pTr02   ", #   2 in fldList, rec=   2
(PID.TID 0000.0001) READ_MFLDS_3D_RL: read field: "pTr03   ", #   3 in fldList, rec=   3
(PID.TID 0000.0001) READ_MFLDS_3D_RL: read field: "pTr04   ", #   4 in fldList, rec=   4
(PID.TID 0000.0001) READ_MFLDS_3D_RL: read field: "pTr05   ", #   5 in fldList, rec=   5
(PID.TID 0000.0001) READ_MFLDS_CHECK: - normal end ; reset MFLDS file-name: pickup_ptracers.0005184000
 DIC_SURFFORCING_INIT, it=   5184000 : Reading new data, i0,i1=   12    1
 QQ alpha before  9.70000000000000011E-011
(PID.TID 0000.0001) // =======================================================
(PID.TID 0000.0001) // Model current state
(PID.TID 0000.0001) // =======================================================
(PID.TID 0000.0001) 
 EXTERNAL_FIELDS_LOAD, it=   5184000 : Reading new data, i0,i1=   12    1 (prev=   12    0 )
 DIC_FIELDS_LOAD, it=   5184000 : Reading new data, i0,i1=   12    1 (prev=   12    0 )
(PID.TID 0000.0001) SOLVE_FOR_PRESSURE: putPmEinXvector =    F
 cg2d: Sum(rhs),rhsMax =  -2.93465216572031E-07  8.32814987068962E+00
 mean surface dic   1.9723249740643494        34.855624493690300     
 QQ myiter, totcost =      5184001  -149896021773.45462     
 cg2d: Sum(rhs),rhsMax =  -2.93547127938609E-07  8.32580875881017E+00
 mean surface dic   1.9723041038781146        34.855731590861900     
 QQ myiter, totcost =      5184002  -302787620388.96252     
 cg2d: Sum(rhs),rhsMax =  -2.93677278051518E-07  8.32215434141113E+00
 mean surface dic   1.9722740564994332        34.855734951309159     
 QQ myiter, totcost =      5184003  -454258131132.19965     
 cg2d: Sum(rhs),rhsMax =  -2.93793348760119E-07  8.31886491394281E+00
 mean surface dic   1.9722438449630149        34.855719155301003     
 QQ myiter, totcost =      5184004  -605804087424.30664     
(PID.TID 0000.0001) Did not write pickup because writePickupAtEnd = FALSE
 --> objf_test(bi,bj)   =  0.000000000000000D+00
 --> objf_tracer(bi,bj) =  0.000000000000000D+00
 --> objf_atl(bi,bj)    =  0.000000000000000D+00
 --> objf_test(bi,bj)   =  0.000000000000000D+00
 --> objf_tracer(bi,bj) =  0.000000000000000D+00
 --> objf_atl(bi,bj)    =  0.000000000000000D+00
 --> objf_test(bi,bj)   =  0.000000000000000D+00
 --> objf_tracer(bi,bj) =  0.000000000000000D+00
 --> objf_atl(bi,bj)    =  0.000000000000000D+00
 --> objf_test(bi,bj)   =  0.000000000000000D+00
 --> objf_tracer(bi,bj) =  0.000000000000000D+00
 --> objf_atl(bi,bj)    =  0.000000000000000D+00
  local fc =  0.000000000000000D+00
 global fc = -0.605804087424307D+12
(PID.TID 0000.0001) grdchk perturb(-)fc: fcpertminus = -6.05804087424307E+11
grad-res -------------------------------
 grad-res     0    3   63    5    1    1    1    1  -6.05804087721E+11 -6.05804088018E+11 -6.05804087424E+11
 grad-res     0    3    3    3    0    1    1    1  -2.96892088042E+07 -2.96879272461E+07  4.31657900839E-05
(PID.TID 0000.0001)  ADM  ref_cost_function      = -6.05804087721186E+11
(PID.TID 0000.0001)  ADM  adjoint_gradient       = -2.96892088042487E+07
(PID.TID 0000.0001)  ADM  finite-diff_grad       = -2.96879272460937E+07
(PID.TID 0000.0001) ====== End of gradient-check number   3 (ierr=  0) =======
(PID.TID 0000.0001) ====== Starts gradient-check number   4 (=ichknum) =======
 ph-test icomp, ncvarcomp, ichknum            4       55673           4
 ph-grd _loc: bi, bj, icomptest, ichknum            1           1           3           4
 ph-grd -->hit<--           64           5           1           1
(PID.TID 0000.0001) grdchk pos: i,j,k=   64    5    1 ; bi,bj=   1   1 ; iobc=  1 ; rec=   1
(PID.TID 0000.0001)  simulName=>Tutorial Biogeo<
(PID.TID 0000.0001)  nRecords = 123 ; filePrec =  64 ; fileIter =   5184000
(PID.TID 0000.0001)     nDims =   2 , dims:
(PID.TID 0000.0001)    1: 128   1 128
(PID.TID 0000.0001)    2:  64   1  64
(PID.TID 0000.0001)     nFlds =  11 , nFl3D =   8 , fields:
(PID.TID 0000.0001)  >Uvel    < >Vvel    < >Theta   < >Salt    < >GuNm1   < >GvNm1   < >GtNm1   < >GsNm1   < >EtaN    < >dEtaHdt < >EtaH    <
(PID.TID 0000.0001) missingVal=  1.00000000000000E+00 ; nTimRec =   0 , timeList:
(PID.TID 0000.0001) READ_MFLDS_3D_RL: read field: "Uvel    ", #   1 in fldList, rec=   1
(PID.TID 0000.0001) READ_MFLDS_3D_RL: read field: "Vvel    ", #   2 in fldList, rec=   2
(PID.TID 0000.0001) READ_MFLDS_3D_RL: read field: "Theta   ", #   3 in fldList, rec=   3
(PID.TID 0000.0001) READ_MFLDS_3D_RL: read field: "Salt    ", #   4 in fldList, rec=   4
(PID.TID 0000.0001) READ_MFLDS_3D_RL: read field: "GuNm1   ", #   5 in fldList, rec=   5
(PID.TID 0000.0001) READ_MFLDS_3D_RL: read field: "GvNm1   ", #   6 in fldList, rec=   6
(PID.TID 0000.0001) READ_MFLDS_3D_RL: read field: "GtNm1   ", #   7 in fldList, rec=   7
(PID.TID 0000.0001) READ_MFLDS_3D_RL: read field: "GsNm1   ", #   8 in fldList, rec=   8
(PID.TID 0000.0001) READ_MFLDS_3D_RL: read field: "EtaN    ", #   9 in fldList, rec= 121
(PID.TID 0000.0001) READ_MFLDS_CHECK: - normal end ; reset MFLDS file-name: pickup.0005184000
(PID.TID 0000.0001)  simulName=>Tutorial Biogeo<
(PID.TID 0000.0001)  nRecords =   5 ; filePrec =  64 ; fileIter =   5184000
(PID.TID 0000.0001)     nDims =   3 , dims:
(PID.TID 0000.0001)    1: 128   1 128
(PID.TID 0000.0001)    2:  64   1  64
(PID.TID 0000.0001)    3:  15   1  15
(PID.TID 0000.0001)     nFlds =   5 , nFl3D =   0 , fields:
(PID.TID 0000.0001)  >pTr01   < >pTr02   < >pTr03   < >pTr04   < >pTr05   <
(PID.TID 0000.0001) missingVal=  1.00000000000000E+00 ; nTimRec =   0 , timeList:
(PID.TID 0000.0001) READ_MFLDS_3D_RL: read field: "pTr01   ", #   1 in fldList, rec=   1
(PID.TID 0000.0001) READ_MFLDS_3D_RL: read field: "pTr02   ", #   2 in fldList, rec=   2
(PID.TID 0000.0001) READ_MFLDS_3D_RL: read field: "pTr03   ", #   3 in fldList, rec=   3
(PID.TID 0000.0001) READ_MFLDS_3D_RL: read field: "pTr04   ", #   4 in fldList, rec=   4
(PID.TID 0000.0001) READ_MFLDS_3D_RL: read field: "pTr05   ", #   5 in fldList, rec=   5
(PID.TID 0000.0001) READ_MFLDS_CHECK: - normal end ; reset MFLDS file-name: pickup_ptracers.0005184000
 DIC_SURFFORCING_INIT, it=   5184000 : Reading new data, i0,i1=   12    1
 QQ alpha before  9.70000000000000011E-011
(PID.TID 0000.0001) // =======================================================
(PID.TID 0000.0001) // Model current state
(PID.TID 0000.0001) // =======================================================
(PID.TID 0000.0001) 
 EXTERNAL_FIELDS_LOAD, it=   5184000 : Reading new data, i0,i1=   12    1 (prev=   12    0 )
 DIC_FIELDS_LOAD, it=   5184000 : Reading new data, i0,i1=   12    1 (prev=   12    0 )
(PID.TID 0000.0001) SOLVE_FOR_PRESSURE: putPmEinXvector =    F
 cg2d: Sum(rhs),rhsMax =  -2.93465216572031E-07  8.32814987068962E+00
 mean surface dic   1.9723249740641207        34.855624493691536     
 QQ myiter, totcost =      5184001  -149896022004.60281     
 cg2d: Sum(rhs),rhsMax =  -2.93547053331622E-07  8.32580875881018E+00
 mean surface dic   1.9723041038776481        34.855731590863861     
 QQ myiter, totcost =      5184002  -302787620759.43591     
 cg2d: Sum(rhs),rhsMax =  -2.93677306473228E-07  8.32215434141113E+00
 mean surface dic   1.9722740564987415        34.855734951311781     
 QQ myiter, totcost =      5184003  -454258131672.70758     
 cg2d: Sum(rhs),rhsMax =  -2.93792755456934E-07  8.31886491394281E+00
 mean surface dic   1.9722438449621014        34.855719155304236     
 QQ myiter, totcost =      5184004  -605804088115.87073     
(PID.TID 0000.0001) Did not write pickup because writePickupAtEnd = FALSE
 --> objf_test(bi,bj)   =  0.000000000000000D+00
 --> objf_tracer(bi,bj) =  0.000000000000000D+00
 --> objf_atl(bi,bj)    =  0.000000000000000D+00
 --> objf_test(bi,bj)   =  0.000000000000000D+00
 --> objf_tracer(bi,bj) =  0.000000000000000D+00
 --> objf_atl(bi,bj)    =  0.000000000000000D+00
 --> objf_test(bi,bj)   =  0.000000000000000D+00
 --> objf_tracer(bi,bj) =  0.000000000000000D+00
 --> objf_atl(bi,bj)    =  0.000000000000000D+00
 --> objf_test(bi,bj)   =  0.000000000000000D+00
 --> objf_tracer(bi,bj) =  0.000000000000000D+00
 --> objf_atl(bi,bj)    =  0.000000000000000D+00
  local fc =  0.000000000000000D+00
 global fc = -0.605804088115871D+12
(PID.TID 0000.0001) grdchk perturb(+)fc: fcpertplus  = -6.05804088115871E+11
(PID.TID 0000.0001)  simulName=>Tutorial Biogeo<
(PID.TID 0000.0001)  nRecords = 123 ; filePrec =  64 ; fileIter =   5184000
(PID.TID 0000.0001)     nDims =   2 , dims:
(PID.TID 0000.0001)    1: 128   1 128
(PID.TID 0000.0001)    2:  64   1  64
(PID.TID 0000.0001)     nFlds =  11 , nFl3D =   8 , fields:
(PID.TID 0000.0001)  >Uvel    < >Vvel    < >Theta   < >Salt    < >GuNm1   < >GvNm1   < >GtNm1   < >GsNm1   < >EtaN    < >dEtaHdt < >EtaH    <
(PID.TID 0000.0001) missingVal=  1.00000000000000E+00 ; nTimRec =   0 , timeList:
(PID.TID 0000.0001) READ_MFLDS_3D_RL: read field: "Uvel    ", #   1 in fldList, rec=   1
(PID.TID 0000.0001) READ_MFLDS_3D_RL: read field: "Vvel    ", #   2 in fldList, rec=   2
(PID.TID 0000.0001) READ_MFLDS_3D_RL: read field: "Theta   ", #   3 in fldList, rec=   3
(PID.TID 0000.0001) READ_MFLDS_3D_RL: read field: "Salt    ", #   4 in fldList, rec=   4
(PID.TID 0000.0001) READ_MFLDS_3D_RL: read field: "GuNm1   ", #   5 in fldList, rec=   5
(PID.TID 0000.0001) READ_MFLDS_3D_RL: read field: "GvNm1   ", #   6 in fldList, rec=   6
(PID.TID 0000.0001) READ_MFLDS_3D_RL: read field: "GtNm1   ", #   7 in fldList, rec=   7
(PID.TID 0000.0001) READ_MFLDS_3D_RL: read field: "GsNm1   ", #   8 in fldList, rec=   8
(PID.TID 0000.0001) READ_MFLDS_3D_RL: read field: "EtaN    ", #   9 in fldList, rec= 121
(PID.TID 0000.0001) READ_MFLDS_CHECK: - normal end ; reset MFLDS file-name: pickup.0005184000
(PID.TID 0000.0001)  simulName=>Tutorial Biogeo<
(PID.TID 0000.0001)  nRecords =   5 ; filePrec =  64 ; fileIter =   5184000
(PID.TID 0000.0001)     nDims =   3 , dims:
(PID.TID 0000.0001)    1: 128   1 128
(PID.TID 0000.0001)    2:  64   1  64
(PID.TID 0000.0001)    3:  15   1  15
(PID.TID 0000.0001)     nFlds =   5 , nFl3D =   0 , fields:
(PID.TID 0000.0001)  >pTr01   < >pTr02   < >pTr03   < >pTr04   < >pTr05   <
(PID.TID 0000.0001) missingVal=  1.00000000000000E+00 ; nTimRec =   0 , timeList:
(PID.TID 0000.0001) READ_MFLDS_3D_RL: read field: "pTr01   ", #   1 in fldList, rec=   1
(PID.TID 0000.0001) READ_MFLDS_3D_RL: read field: "pTr02   ", #   2 in fldList, rec=   2
(PID.TID 0000.0001) READ_MFLDS_3D_RL: read field: "pTr03   ", #   3 in fldList, rec=   3
(PID.TID 0000.0001) READ_MFLDS_3D_RL: read field: "pTr04   ", #   4 in fldList, rec=   4
(PID.TID 0000.0001) READ_MFLDS_3D_RL: read field: "pTr05   ", #   5 in fldList, rec=   5
(PID.TID 0000.0001) READ_MFLDS_CHECK: - normal end ; reset MFLDS file-name: pickup_ptracers.0005184000
 DIC_SURFFORCING_INIT, it=   5184000 : Reading new data, i0,i1=   12    1
 QQ alpha before  9.70000000000000011E-011
(PID.TID 0000.0001) // =======================================================
(PID.TID 0000.0001) // Model current state
(PID.TID 0000.0001) // =======================================================
(PID.TID 0000.0001) 
 EXTERNAL_FIELDS_LOAD, it=   5184000 : Reading new data, i0,i1=   12    1 (prev=   12    0 )
 DIC_FIELDS_LOAD, it=   5184000 : Reading new data, i0,i1=   12    1 (prev=   12    0 )
(PID.TID 0000.0001) SOLVE_FOR_PRESSURE: putPmEinXvector =    F
 cg2d: Sum(rhs),rhsMax =  -2.93465159728612E-07  8.32814987068962E+00
 mean surface dic   1.9723249740641613        34.855624493690414     
 QQ myiter, totcost =      5184001  -149896021747.00674     
 cg2d: Sum(rhs),rhsMax =  -2.93547159913032E-07  8.32580875881018E+00
 mean surface dic   1.9723041038777569        34.855731590862014     
 QQ myiter, totcost =      5184002  -302787620342.99243     
 cg2d: Sum(rhs),rhsMax =  -2.93677413054638E-07  8.32215434141113E+00
 mean surface dic   1.9722740564989167        34.855734951309252     
 QQ myiter, totcost =      5184003  -454258131060.52344     
 cg2d: Sum(rhs),rhsMax =  -2.93793323891123E-07  8.31886491394281E+00
 mean surface dic   1.9722438449623507        34.855719155301088     
 QQ myiter, totcost =      5184004  -605804087326.50623     
(PID.TID 0000.0001) Did not write pickup because writePickupAtEnd = FALSE
 --> objf_test(bi,bj)   =  0.000000000000000D+00
 --> objf_tracer(bi,bj) =  0.000000000000000D+00
 --> objf_atl(bi,bj)    =  0.000000000000000D+00
 --> objf_test(bi,bj)   =  0.000000000000000D+00
 --> objf_tracer(bi,bj) =  0.000000000000000D+00
 --> objf_atl(bi,bj)    =  0.000000000000000D+00
 --> objf_test(bi,bj)   =  0.000000000000000D+00
 --> objf_tracer(bi,bj) =  0.000000000000000D+00
 --> objf_atl(bi,bj)    =  0.000000000000000D+00
 --> objf_test(bi,bj)   =  0.000000000000000D+00
 --> objf_tracer(bi,bj) =  0.000000000000000D+00
 --> objf_atl(bi,bj)    =  0.000000000000000D+00
  local fc =  0.000000000000000D+00
 global fc = -0.605804087326506D+12
(PID.TID 0000.0001) grdchk perturb(-)fc: fcpertminus = -6.05804087326506E+11
grad-res -------------------------------
 grad-res     0    4   64    5    1    1    1    1  -6.05804087721E+11 -6.05804088116E+11 -6.05804087327E+11
 grad-res     0    4    4    4    0    1    1    1  -3.94679680309E+07 -3.94682250977E+07 -6.51330155255E-06
(PID.TID 0000.0001)  ADM  ref_cost_function      = -6.05804087721186E+11
(PID.TID 0000.0001)  ADM  adjoint_gradient       = -3.94679680308788E+07
(PID.TID 0000.0001)  ADM  finite-diff_grad       = -3.94682250976563E+07
(PID.TID 0000.0001) ====== End of gradient-check number   4 (ierr=  0) =======
(PID.TID 0000.0001) 
(PID.TID 0000.0001) // =======================================================
(PID.TID 0000.0001) // Gradient check results  >>> START <<<
(PID.TID 0000.0001) // =======================================================
(PID.TID 0000.0001) 
(PID.TID 0000.0001)  EPS =   1.000000E-05
(PID.TID 0000.0001) 
(PID.TID 0000.0001) grdchk output h.p:  Id Itile Jtile LAYER   bi   bj   X(Id)           X(Id)+/-EPS
(PID.TID 0000.0001) grdchk output h.c:  Id  FC                   FC1                  FC2
(PID.TID 0000.0001) grdchk output h.g:  Id     FC1-FC2/(2*EPS)      ADJ GRAD(FC)         1-FDGRD/ADGRD
(PID.TID 0000.0001) 
(PID.TID 0000.0001) grdchk output (p):   1    61     5     1    1    1   0.000000000E+00 -1.000000000E-05
(PID.TID 0000.0001) grdchk output (c):   1 -6.0580408772119E+11 -6.0580408781080E+11 -6.0580408763158E+11
(PID.TID 0000.0001) grdchk output (g):   1    -8.9611328125000E+06 -8.9696242865575E+06  9.4669227898281E-04
(PID.TID 0000.0001) 
(PID.TID 0000.0001) grdchk output (p):   2    62     5     1    1    1   0.000000000E+00 -1.000000000E-05
(PID.TID 0000.0001) grdchk output (c):   2 -6.0580408772119E+11 -6.0580408800107E+11 -6.0580408744130E+11
(PID.TID 0000.0001) grdchk output (g):   2    -2.7988684082031E+07 -2.7986232351816E+07 -8.7604868880042E-05
(PID.TID 0000.0001) 
(PID.TID 0000.0001) grdchk output (p):   3    63     5     1    1    1   0.000000000E+00 -1.000000000E-05
(PID.TID 0000.0001) grdchk output (c):   3 -6.0580408772119E+11 -6.0580408801807E+11 -6.0580408742431E+11
(PID.TID 0000.0001) grdchk output (g):   3    -2.9687927246094E+07 -2.9689208804249E+07  4.3165790083899E-05
(PID.TID 0000.0001) 
(PID.TID 0000.0001) grdchk output (p):   4    64     5     1    1    1   0.000000000E+00 -1.000000000E-05
(PID.TID 0000.0001) grdchk output (c):   4 -6.0580408772119E+11 -6.0580408811587E+11 -6.0580408732651E+11
(PID.TID 0000.0001) grdchk output (g):   4    -3.9468225097656E+07 -3.9467968030879E+07 -6.5133015525465E-06
(PID.TID 0000.0001) 
(PID.TID 0000.0001) grdchk  summary  :  RMS of    4 ratios =  4.7586936039943E-04
(PID.TID 0000.0001) 
(PID.TID 0000.0001) // =======================================================
(PID.TID 0000.0001) // Gradient check results  >>> END <<<
(PID.TID 0000.0001) // =======================================================
(PID.TID 0000.0001) 
(PID.TID 0000.0001)   Seconds in section "ALL                    [THE_MODEL_MAIN]":
(PID.TID 0000.0001)           User time:   252.64000000000001
(PID.TID 0000.0001)         System time:  0.77000000000000002
(PID.TID 0000.0001)     Wall clock time:   254.18038296699524
(PID.TID 0000.0001)          No. starts:           1
(PID.TID 0000.0001)           No. stops:           1
(PID.TID 0000.0001)   Seconds in section "INITIALISE_FIXED       [THE_MODEL_MAIN]":
(PID.TID 0000.0001)           User time:  0.39000000000000001
(PID.TID 0000.0001)         System time:  4.00000000000000008E-002
(PID.TID 0000.0001)     Wall clock time:  0.45764708518981934
(PID.TID 0000.0001)          No. starts:           1
(PID.TID 0000.0001)           No. stops:           1
(PID.TID 0000.0001)   Seconds in section "ADTHE_MAIN_LOOP          [ADJOINT RUN]":
(PID.TID 0000.0001)           User time:   117.58000000000000
(PID.TID 0000.0001)         System time:  0.65000000000000002
(PID.TID 0000.0001)     Wall clock time:   118.68010711669922
(PID.TID 0000.0001)          No. starts:           1
(PID.TID 0000.0001)           No. stops:           1
(PID.TID 0000.0001)   Seconds in section "LOAD_FIELDS_DRIVER  [FORWARD_STEP]":
(PID.TID 0000.0001)           User time:  0.29000000000010573
(PID.TID 0000.0001)         System time:   0.0000000000000000
(PID.TID 0000.0001)     Wall clock time:  0.27761435508728027
(PID.TID 0000.0001)          No. starts:          40
(PID.TID 0000.0001)           No. stops:          40
(PID.TID 0000.0001)   Seconds in section "EXTERNAL_FLDS_LOAD [LOAD_FLDS_DRIVER]":
(PID.TID 0000.0001)           User time:  0.25000000000014211
(PID.TID 0000.0001)         System time:   0.0000000000000000
(PID.TID 0000.0001)     Wall clock time:  0.22026228904724121
(PID.TID 0000.0001)          No. starts:          48
(PID.TID 0000.0001)           No. stops:          48
(PID.TID 0000.0001)   Seconds in section "DO_ATMOSPHERIC_PHYS [FORWARD_STEP]":
(PID.TID 0000.0001)           User time:   0.0000000000000000
(PID.TID 0000.0001)         System time:   0.0000000000000000
(PID.TID 0000.0001)     Wall clock time:  3.77655029296875000E-004
(PID.TID 0000.0001)          No. starts:          40
(PID.TID 0000.0001)           No. stops:          40
(PID.TID 0000.0001)   Seconds in section "DO_OCEANIC_PHYS     [FORWARD_STEP]":
(PID.TID 0000.0001)           User time:   12.019999999999982
(PID.TID 0000.0001)         System time:   0.0000000000000000
(PID.TID 0000.0001)     Wall clock time:   12.062407970428467
(PID.TID 0000.0001)          No. starts:          40
(PID.TID 0000.0001)           No. stops:          40
(PID.TID 0000.0001)   Seconds in section "GCHEM_CALC_TENDENCY [FORWARD_STEP]":
(PID.TID 0000.0001)           User time:   0.0000000000000000
(PID.TID 0000.0001)         System time:   0.0000000000000000
(PID.TID 0000.0001)     Wall clock time:  3.67403030395507813E-004
(PID.TID 0000.0001)          No. starts:          40
(PID.TID 0000.0001)           No. stops:          40
(PID.TID 0000.0001)   Seconds in section "THERMODYNAMICS      [FORWARD_STEP]":
(PID.TID 0000.0001)           User time:   94.490000000000009
(PID.TID 0000.0001)         System time:   0.0000000000000000
(PID.TID 0000.0001)     Wall clock time:   94.668903112411499
(PID.TID 0000.0001)          No. starts:          40
(PID.TID 0000.0001)           No. stops:          40
(PID.TID 0000.0001)   Seconds in section "DYNAMICS            [FORWARD_STEP]":
(PID.TID 0000.0001)           User time:   34.320000000000050
(PID.TID 0000.0001)         System time:  1.00000000000000089E-002
(PID.TID 0000.0001)     Wall clock time:   34.415235757827759
(PID.TID 0000.0001)          No. starts:          40
(PID.TID 0000.0001)           No. stops:          40
(PID.TID 0000.0001)   Seconds in section "SOLVE_FOR_PRESSURE  [FORWARD_STEP]":
(PID.TID 0000.0001)           User time:   3.9599999999999511
(PID.TID 0000.0001)         System time:   0.0000000000000000
(PID.TID 0000.0001)     Wall clock time:   3.9721312522888184
(PID.TID 0000.0001)          No. starts:          40
(PID.TID 0000.0001)           No. stops:          40
(PID.TID 0000.0001)   Seconds in section "MOM_CORRECTION_STEP [FORWARD_STEP]":
(PID.TID 0000.0001)           User time:  0.60999999999998522
(PID.TID 0000.0001)         System time:   0.0000000000000000
(PID.TID 0000.0001)     Wall clock time:  0.59942412376403809
(PID.TID 0000.0001)          No. starts:          40
(PID.TID 0000.0001)           No. stops:          40
(PID.TID 0000.0001)   Seconds in section "INTEGR_CONTINUITY   [FORWARD_STEP]":
(PID.TID 0000.0001)           User time:  0.91999999999998749
(PID.TID 0000.0001)         System time:   0.0000000000000000
(PID.TID 0000.0001)     Wall clock time:  0.93455767631530762
(PID.TID 0000.0001)          No. starts:          40
(PID.TID 0000.0001)           No. stops:          40
(PID.TID 0000.0001)   Seconds in section "TRC_CORRECTION_STEP [FORWARD_STEP]":
(PID.TID 0000.0001)           User time:   1.0699999999999648
(PID.TID 0000.0001)         System time:  1.00000000000000089E-002
(PID.TID 0000.0001)     Wall clock time:   1.0690920352935791
(PID.TID 0000.0001)          No. starts:          40
(PID.TID 0000.0001)           No. stops:          40
(PID.TID 0000.0001)   Seconds in section "GCHEM_FORCING_SEP  [FORWARD_STEP]":
(PID.TID 0000.0001)           User time:   6.4400000000001398
(PID.TID 0000.0001)         System time:   0.0000000000000000
(PID.TID 0000.0001)     Wall clock time:   6.4614367485046387
(PID.TID 0000.0001)          No. starts:          40
(PID.TID 0000.0001)           No. stops:          40
(PID.TID 0000.0001)   Seconds in section "BLOCKING_EXCHANGES  [FORWARD_STEP]":
(PID.TID 0000.0001)           User time:   1.1899999999999693
(PID.TID 0000.0001)         System time:   0.0000000000000000
(PID.TID 0000.0001)     Wall clock time:   1.1925904750823975
(PID.TID 0000.0001)          No. starts:          40
(PID.TID 0000.0001)           No. stops:          40
(PID.TID 0000.0001)   Seconds in section "DO_STATEVARS_TAVE   [FORWARD_STEP]":
(PID.TID 0000.0001)           User time:  0.53999999999999204
(PID.TID 0000.0001)         System time:   0.0000000000000000
(PID.TID 0000.0001)     Wall clock time:  0.54177856445312500
(PID.TID 0000.0001)          No. starts:          40
(PID.TID 0000.0001)           No. stops:          40
(PID.TID 0000.0001)   Seconds in section "MONITOR             [FORWARD_STEP]":
(PID.TID 0000.0001)           User time:  0.71999999999999886
(PID.TID 0000.0001)         System time:   0.0000000000000000
(PID.TID 0000.0001)     Wall clock time:  0.71688628196716309
(PID.TID 0000.0001)          No. starts:          40
(PID.TID 0000.0001)           No. stops:          40
(PID.TID 0000.0001)   Seconds in section "COST_TILE           [FORWARD_STEP]":
(PID.TID 0000.0001)           User time:   0.0000000000000000
(PID.TID 0000.0001)         System time:   0.0000000000000000
(PID.TID 0000.0001)     Wall clock time:  3.94582748413085938E-004
(PID.TID 0000.0001)          No. starts:          40
(PID.TID 0000.0001)           No. stops:          40
(PID.TID 0000.0001)   Seconds in section "DO_THE_MODEL_IO     [FORWARD_STEP]":
(PID.TID 0000.0001)           User time:  0.42999999999997840
(PID.TID 0000.0001)         System time:   0.0000000000000000
(PID.TID 0000.0001)     Wall clock time:  0.44208097457885742
(PID.TID 0000.0001)          No. starts:          40
(PID.TID 0000.0001)           No. stops:          40
(PID.TID 0000.0001)   Seconds in section "PTRACERS_RESET      [FORWARD_STEP]":
(PID.TID 0000.0001)           User time:   0.0000000000000000
(PID.TID 0000.0001)         System time:   0.0000000000000000
(PID.TID 0000.0001)     Wall clock time:  3.94105911254882813E-004
(PID.TID 0000.0001)          No. starts:          40
(PID.TID 0000.0001)           No. stops:          40
(PID.TID 0000.0001)   Seconds in section "DO_WRITE_PICKUP     [FORWARD_STEP]":
(PID.TID 0000.0001)           User time:  0.13000000000002387
(PID.TID 0000.0001)         System time:  1.99999999999999067E-002
(PID.TID 0000.0001)     Wall clock time:  0.15280389785766602
(PID.TID 0000.0001)          No. starts:          40
(PID.TID 0000.0001)           No. stops:          40
(PID.TID 0000.0001)   Seconds in section "GRDCHK_MAIN         [THE_MODEL_MAIN]":
(PID.TID 0000.0001)           User time:   134.67000000000002
(PID.TID 0000.0001)         System time:  7.99999999999999600E-002
(PID.TID 0000.0001)     Wall clock time:   135.04256606101990
(PID.TID 0000.0001)          No. starts:           1
(PID.TID 0000.0001)           No. stops:           1
(PID.TID 0000.0001)   Seconds in section "INITIALISE_VARIA    [THE_MAIN_LOOP]":
(PID.TID 0000.0001)           User time:   3.5100000000000193
(PID.TID 0000.0001)         System time:  7.99999999999999600E-002
(PID.TID 0000.0001)     Wall clock time:   3.5901691913604736
(PID.TID 0000.0001)          No. starts:           8
(PID.TID 0000.0001)           No. stops:           8
(PID.TID 0000.0001)   Seconds in section "MAIN LOOP           [THE_MAIN_LOOP]":
(PID.TID 0000.0001)           User time:   130.86000000000001
(PID.TID 0000.0001)         System time:   0.0000000000000000
(PID.TID 0000.0001)     Wall clock time:   131.12953424453735
(PID.TID 0000.0001)          No. starts:           8
(PID.TID 0000.0001)           No. stops:           8
(PID.TID 0000.0001)   Seconds in section "MAIN_DO_LOOP        [THE_MAIN_LOOP]":
(PID.TID 0000.0001)           User time:   130.86000000000001
(PID.TID 0000.0001)         System time:   0.0000000000000000
(PID.TID 0000.0001)     Wall clock time:   131.12856817245483
(PID.TID 0000.0001)          No. starts:           8
(PID.TID 0000.0001)           No. stops:           8
(PID.TID 0000.0001)   Seconds in section "FORWARD_STEP        [MAIN_DO_LOOP]":
(PID.TID 0000.0001)           User time:   124.17000000000002
(PID.TID 0000.0001)         System time:   0.0000000000000000
(PID.TID 0000.0001)     Wall clock time:   124.42294764518738
(PID.TID 0000.0001)          No. starts:          32
(PID.TID 0000.0001)           No. stops:          32
(PID.TID 0000.0001)   Seconds in section "COST_FINAL         [ADJOINT SPIN-DOWN]":
(PID.TID 0000.0001)           User time:   0.0000000000000000
(PID.TID 0000.0001)         System time:   0.0000000000000000
(PID.TID 0000.0001)     Wall clock time:  7.17639923095703125E-004
(PID.TID 0000.0001)          No. starts:           8
(PID.TID 0000.0001)           No. stops:           8
(PID.TID 0000.0001) // ======================================================
(PID.TID 0000.0001) // Tile <-> Tile communication statistics
(PID.TID 0000.0001) // ======================================================
(PID.TID 0000.0001) // o Tile number: 000001
(PID.TID 0000.0001) //         No. X exchanges =              0
(PID.TID 0000.0001) //            Max. X spins =              0
(PID.TID 0000.0001) //            Min. X spins =     1000000000
(PID.TID 0000.0001) //          Total. X spins =              0
(PID.TID 0000.0001) //            Avg. X spins =       0.00E+00
(PID.TID 0000.0001) //         No. Y exchanges =              0
(PID.TID 0000.0001) //            Max. Y spins =              0
(PID.TID 0000.0001) //            Min. Y spins =     1000000000
(PID.TID 0000.0001) //          Total. Y spins =              0
(PID.TID 0000.0001) //            Avg. Y spins =       0.00E+00
(PID.TID 0000.0001) // o Tile number: 000002
(PID.TID 0000.0001) //         No. X exchanges =              0
(PID.TID 0000.0001) //            Max. X spins =              0
(PID.TID 0000.0001) //            Min. X spins =     1000000000
(PID.TID 0000.0001) //          Total. X spins =              0
(PID.TID 0000.0001) //            Avg. X spins =       0.00E+00
(PID.TID 0000.0001) //         No. Y exchanges =              0
(PID.TID 0000.0001) //            Max. Y spins =              0
(PID.TID 0000.0001) //            Min. Y spins =     1000000000
(PID.TID 0000.0001) //          Total. Y spins =              0
(PID.TID 0000.0001) //            Avg. Y spins =       0.00E+00
(PID.TID 0000.0001) // o Tile number: 000003
(PID.TID 0000.0001) //         No. X exchanges =              0
(PID.TID 0000.0001) //            Max. X spins =              0
(PID.TID 0000.0001) //            Min. X spins =     1000000000
(PID.TID 0000.0001) //          Total. X spins =              0
(PID.TID 0000.0001) //            Avg. X spins =       0.00E+00
(PID.TID 0000.0001) //         No. Y exchanges =              0
(PID.TID 0000.0001) //            Max. Y spins =              0
(PID.TID 0000.0001) //            Min. Y spins =     1000000000
(PID.TID 0000.0001) //          Total. Y spins =              0
(PID.TID 0000.0001) //            Avg. Y spins =       0.00E+00
(PID.TID 0000.0001) // o Tile number: 000004
(PID.TID 0000.0001) //         No. X exchanges =              0
(PID.TID 0000.0001) //            Max. X spins =              0
(PID.TID 0000.0001) //            Min. X spins =     1000000000
(PID.TID 0000.0001) //          Total. X spins =              0
(PID.TID 0000.0001) //            Avg. X spins =       0.00E+00
(PID.TID 0000.0001) //         No. Y exchanges =              0
(PID.TID 0000.0001) //            Max. Y spins =              0
(PID.TID 0000.0001) //            Min. Y spins =     1000000000
(PID.TID 0000.0001) //          Total. Y spins =              0
(PID.TID 0000.0001) //            Avg. Y spins =       0.00E+00
(PID.TID 0000.0001) // o Thread number: 000001
(PID.TID 0000.0001) //            No. barriers =          11180
(PID.TID 0000.0001) //      Max. barrier spins =              1
(PID.TID 0000.0001) //      Min. barrier spins =              1
(PID.TID 0000.0001) //     Total barrier spins =          11180
(PID.TID 0000.0001) //      Avg. barrier spins =       1.00E+00
PROGRAM MAIN: Execution ended Normally
