(PID.TID 0000.0001) 
(PID.TID 0000.0001) // ======================================================
(PID.TID 0000.0001) //                      MITgcm UV
(PID.TID 0000.0001) //                      =========
(PID.TID 0000.0001) // ======================================================
(PID.TID 0000.0001) // execution environment starting up...
(PID.TID 0000.0001) 
(PID.TID 0000.0001) // MITgcmUV version:  checkpoint63e
(PID.TID 0000.0001) // Build user:        jmc
(PID.TID 0000.0001) // Build host:        baudelaire
(PID.TID 0000.0001) // Build date:        Mon Nov  7 16:10:43 EST 2011
(PID.TID 0000.0001) 
(PID.TID 0000.0001) // =======================================================
(PID.TID 0000.0001) // Execution Environment parameter file "eedata"
(PID.TID 0000.0001) // =======================================================
(PID.TID 0000.0001) ># Example "eedata" file
(PID.TID 0000.0001) ># Lines beginning "#" are comments
(PID.TID 0000.0001) ># nTx - No. threads per process in X
(PID.TID 0000.0001) ># nTy - No. threads per process in Y
(PID.TID 0000.0001) > &EEPARMS
(PID.TID 0000.0001) > nTx=1,
(PID.TID 0000.0001) > nTy=1,
(PID.TID 0000.0001) > /
(PID.TID 0000.0001) ># Note: Some systems use & as the
(PID.TID 0000.0001) ># namelist terminator. Other systems
(PID.TID 0000.0001) ># use a / character (as shown here).
(PID.TID 0000.0001) 
(PID.TID 0000.0001) // =======================================================
(PID.TID 0000.0001) // Computational Grid Specification ( see files "SIZE.h" )
(PID.TID 0000.0001) //                                  ( and "eedata"       )
(PID.TID 0000.0001) // =======================================================
(PID.TID 0000.0001)      nPx =    1 ; /* No. processes in X */
(PID.TID 0000.0001)      nPy =    1 ; /* No. processes in Y */
(PID.TID 0000.0001)      nSx =    2 ; /* No. tiles in X per process */
(PID.TID 0000.0001)      nSy =    2 ; /* No. tiles in Y per process */
(PID.TID 0000.0001)      sNx =   10 ; /* Tile size in X */
(PID.TID 0000.0001)      sNy =    8 ; /* Tile size in Y */
(PID.TID 0000.0001)      OLx =    4 ; /* Tile overlap distance in X */
(PID.TID 0000.0001)      OLy =    4 ; /* Tile overlap distance in Y */
(PID.TID 0000.0001)      nTx =    1 ; /* No. threads in X per process */
(PID.TID 0000.0001)      nTy =    1 ; /* No. threads in Y per process */
(PID.TID 0000.0001)       Nr =   23 ; /* No. levels in the vertical   */
(PID.TID 0000.0001)       Nx =   20 ; /* Total domain size in X ( = nPx*nSx*sNx ) */
(PID.TID 0000.0001)       Ny =   16 ; /* Total domain size in Y ( = nPy*nSy*sNy ) */
(PID.TID 0000.0001)   nTiles =    4 ; /* Total no. tiles per process ( = nSx*nSy ) */
(PID.TID 0000.0001)   nProcs =    1 ; /* Total no. processes ( = nPx*nPy ) */
(PID.TID 0000.0001) nThreads =    1 ; /* Total no. threads per process ( = nTx*nTy ) */
(PID.TID 0000.0001) usingMPI =    F ; /* Flag used to control whether MPI is in use */
(PID.TID 0000.0001)                   /*  note: To execute a program with MPI calls */
(PID.TID 0000.0001)                   /*  it must be launched appropriately e.g     */
(PID.TID 0000.0001)                   /*  "mpirun -np 64 ......"                    */
(PID.TID 0000.0001) useCoupler=    F ;/* Flag used to control communications with   */
(PID.TID 0000.0001)                   /*  other model components, through a coupler */
(PID.TID 0000.0001) debugMode =    F ; /* print debug msg. (sequence of S/R calls)  */
(PID.TID 0000.0001) printMapIncludesZeros=    F ; /* print zeros in Std.Output maps */
(PID.TID 0000.0001) maxLengthPrt1D=   65 /* maxLength of 1D array printed to StdOut */
(PID.TID 0000.0001) 
(PID.TID 0000.0001) // ======================================================
(PID.TID 0000.0001) // Mapping of tiles to threads
(PID.TID 0000.0001) // ======================================================
(PID.TID 0000.0001) // -o- Thread   1, tiles (   1:   2,   1:   2)
(PID.TID 0000.0001) 
(PID.TID 0000.0001) // ======================================================
(PID.TID 0000.0001) // Tile <-> Tile connectvity table
(PID.TID 0000.0001) // ======================================================
(PID.TID 0000.0001) // Tile number: 000001 (process no. = 000001)
(PID.TID 0000.0001) //        WEST: Tile = 000002, Process = 000001, Comm = put
(PID.TID 0000.0001) //                bi = 000002, bj = 000001
(PID.TID 0000.0001) //        EAST: Tile = 000002, Process = 000001, Comm = put
(PID.TID 0000.0001) //                bi = 000002, bj = 000001
(PID.TID 0000.0001) //       SOUTH: Tile = 000003, Process = 000001, Comm = put
(PID.TID 0000.0001) //                bi = 000001, bj = 000002
(PID.TID 0000.0001) //       NORTH: Tile = 000003, Process = 000001, Comm = put
(PID.TID 0000.0001) //                bi = 000001, bj = 000002
(PID.TID 0000.0001) // Tile number: 000002 (process no. = 000001)
(PID.TID 0000.0001) //        WEST: Tile = 000001, Process = 000001, Comm = put
(PID.TID 0000.0001) //                bi = 000001, bj = 000001
(PID.TID 0000.0001) //        EAST: Tile = 000001, Process = 000001, Comm = put
(PID.TID 0000.0001) //                bi = 000001, bj = 000001
(PID.TID 0000.0001) //       SOUTH: Tile = 000004, Process = 000001, Comm = put
(PID.TID 0000.0001) //                bi = 000002, bj = 000002
(PID.TID 0000.0001) //       NORTH: Tile = 000004, Process = 000001, Comm = put
(PID.TID 0000.0001) //                bi = 000002, bj = 000002
(PID.TID 0000.0001) // Tile number: 000003 (process no. = 000001)
(PID.TID 0000.0001) //        WEST: Tile = 000004, Process = 000001, Comm = put
(PID.TID 0000.0001) //                bi = 000002, bj = 000002
(PID.TID 0000.0001) //        EAST: Tile = 000004, Process = 000001, Comm = put
(PID.TID 0000.0001) //                bi = 000002, bj = 000002
(PID.TID 0000.0001) //       SOUTH: Tile = 000001, Process = 000001, Comm = put
(PID.TID 0000.0001) //                bi = 000001, bj = 000001
(PID.TID 0000.0001) //       NORTH: Tile = 000001, Process = 000001, Comm = put
(PID.TID 0000.0001) //                bi = 000001, bj = 000001
(PID.TID 0000.0001) // Tile number: 000004 (process no. = 000001)
(PID.TID 0000.0001) //        WEST: Tile = 000003, Process = 000001, Comm = put
(PID.TID 0000.0001) //                bi = 000001, bj = 000002
(PID.TID 0000.0001) //        EAST: Tile = 000003, Process = 000001, Comm = put
(PID.TID 0000.0001) //                bi = 000001, bj = 000002
(PID.TID 0000.0001) //       SOUTH: Tile = 000002, Process = 000001, Comm = put
(PID.TID 0000.0001) //                bi = 000002, bj = 000001
(PID.TID 0000.0001) //       NORTH: Tile = 000002, Process = 000001, Comm = put
(PID.TID 0000.0001) //                bi = 000002, bj = 000001
(PID.TID 0000.0001) 
(PID.TID 0000.0001)  INI_PARMS: opening model parameter file "data"
(PID.TID 0000.0001)  OPEN_COPY_DATA_FILE: opening file data
(PID.TID 0000.0001) // =======================================================
(PID.TID 0000.0001) // Parameter file "data"
(PID.TID 0000.0001) // =======================================================
(PID.TID 0000.0001) ># ====================
(PID.TID 0000.0001) ># | Model parameters |
(PID.TID 0000.0001) ># ====================
(PID.TID 0000.0001) >#
(PID.TID 0000.0001) ># Continuous equation parameters
(PID.TID 0000.0001) >#
(PID.TID 0000.0001) >#   tRef            - Reference vertical potential temperature          (deg C)
(PID.TID 0000.0001) >#   sRef            - Reference vertical salinity                         (PSU)
(PID.TID 0000.0001) >#   viscAh          - Horizontal eddy viscosity coefficient             (m^2/s)
(PID.TID 0000.0001) >#   viscAz          - Vertical eddy viscosity coefficient               (m^2/s)
(PID.TID 0000.0001) >#   diffKhT         - Horizontal temperature diffusivity                (m^2/s)
(PID.TID 0000.0001) >#   diffKzT         - Vertical temperature diffusivity                  (m^2/s)
(PID.TID 0000.0001) >#   diffKhS         - Horizontal salt diffusivity                       (m^2/s)
(PID.TID 0000.0001) >#   diffKzS         - Vertical salt diffusivity                         (m^2/s)
(PID.TID 0000.0001) >#   tAlpha          - Linear EOS thermal expansion coefficient           (1/oC)
(PID.TID 0000.0001) >#   sBeta           - Linear EOS haline contraction coefficient         (1/ppt)
(PID.TID 0000.0001) >#   gravity         - Acceleration due to gravity                       (m/s^2)
(PID.TID 0000.0001) >#   rigidLid        - Set to true to use rigid lid
(PID.TID 0000.0001) >#   implicitFreeSurface - Set to true to use implicit free surface
(PID.TID 0000.0001) >#   eosType         - Flag for linear or polynomial equation of state
(PID.TID 0000.0001) >#   GMkbackground   - background value of GM/Redi coefficient
(PID.TID 0000.0001) >#   momAdvection    - On/Off flag for momentum self transport
(PID.TID 0000.0001) >#   momViscosity    - On/Off flag for momentum mixing
(PID.TID 0000.0001) >#
(PID.TID 0000.0001) > &PARM01
(PID.TID 0000.0001) > viscAz             = 1.E-3,
(PID.TID 0000.0001) > diffKzT            = 1.E-5,
(PID.TID 0000.0001) > diffKzS            = 1.E-5,
(PID.TID 0000.0001) > viscAh             = 5.0E4,
(PID.TID 0000.0001) > viscA4             = 5.e12,
(PID.TID 0000.0001) > diffKhT            = 1.0E3,
(PID.TID 0000.0001) > diffKhS            = 1.0E3,
(PID.TID 0000.0001) >#rotationPeriod     = 86400.,
(PID.TID 0000.0001) > tAlpha             = 2.E-4,
(PID.TID 0000.0001) > sBeta              = 7.4E-4,
(PID.TID 0000.0001) > gravity            = 9.81,
(PID.TID 0000.0001) > rigidLid           = .FALSE.,
(PID.TID 0000.0001) > implicitFreeSurface= .TRUE.,
(PID.TID 0000.0001) > implicitDiffusion  = .TRUE.,
(PID.TID 0000.0001) > useCDscheme        = .TRUE.,
(PID.TID 0000.0001) > useNHMTerms        = .TRUE.,
(PID.TID 0000.0001) > eosType            = 'POLY3',
(PID.TID 0000.0001) > momAdvection       = .TRUE.,
(PID.TID 0000.0001) > momViscosity       = .TRUE.,
(PID.TID 0000.0001) > implicitDiffusion  = .TRUE.,
(PID.TID 0000.0001) > implicitViscosity  = .TRUE.,
(PID.TID 0000.0001) > no_slip_bottom     = .TRUE.,
(PID.TID 0000.0001) > no_slip_sides      = .FALSE.,
(PID.TID 0000.0001) > readBinaryPrec     = 32,
(PID.TID 0000.0001) >#- not safe to use globalFiles in multi-processors runs
(PID.TID 0000.0001) >#globalFiles        = .TRUE.
(PID.TID 0000.0001) > /
(PID.TID 0000.0001) >
(PID.TID 0000.0001) ># Elliptic solver parameters
(PID.TID 0000.0001) >#
(PID.TID 0000.0001) >#   cg2dMaxIters       - Maximum number of 2d solver iterations
(PID.TID 0000.0001) >#   cg2dTargetResidual - Solver target residual
(PID.TID 0000.0001) >#
(PID.TID 0000.0001) > &PARM02
(PID.TID 0000.0001) > cg2dMaxIters       = 1000,
(PID.TID 0000.0001) > cg2dTargetResidual = 1.E-13,
(PID.TID 0000.0001) > /
(PID.TID 0000.0001) >
(PID.TID 0000.0001) ># Time stepping parameters
(PID.TID 0000.0001) >#
(PID.TID 0000.0001) >#   startTime         - Integration starting time                (s)
(PID.TID 0000.0001) >#   endTime           - Integration ending time                  (s)
(PID.TID 0000.0001) >#   tauCD             - CD scheme coupling timescale             (s)
(PID.TID 0000.0001) >#   deltaTMom         - Timestep for momemtum equations          (s)
(PID.TID 0000.0001) >#   deltaTtracer      - Tracer timestep                          (s)
(PID.TID 0000.0001) >#   deltaTClock       - Timestep used as model "clock"           (s)
(PID.TID 0000.0001) >#   abEps             - Adams-Bashforth stabilising factor
(PID.TID 0000.0001) >#   pChkPtFreq        - Frequency of permanent check pointing    (s)
(PID.TID 0000.0001) >#   chkPtFreq         - Frequency of rolling check pointing      (s)
(PID.TID 0000.0001) >#   dumpFreq          - Frequency at which model state is stored (s)
(PID.TID 0000.0001) >#   tauThetaClimRelax - Relaxation to climatology time scale     (s)
(PID.TID 0000.0001) >#   tauSaltClimRelax  - Relaxation to climatology time scale     (s)
(PID.TID 0000.0001) >#
(PID.TID 0000.0001) > &PARM03
(PID.TID 0000.0001) > baseTime   = 21600.,
(PID.TID 0000.0001) > startTime  = 21600.,
(PID.TID 0000.0001) > endTime    = 93600.,
(PID.TID 0000.0001) > deltaTmom  = 3600.0,
(PID.TID 0000.0001) > TauCD      = 172800.,
(PID.TID 0000.0001) > cAdjFreq   = 0.,
(PID.TID 0000.0001) > abEps      = 0.1,
(PID.TID 0000.0001) > pChkptFreq = 0.0,
(PID.TID 0000.0001) > chkptFreq  = 0.0,
(PID.TID 0000.0001) > dumpFreq   = 86400.,
(PID.TID 0000.0001) > tauSaltClimRelax = 2592000.0,
(PID.TID 0000.0001) > tauThetaClimRelax = 2592000.0,
(PID.TID 0000.0001) > periodicExternalForcing = .TRUE.,
(PID.TID 0000.0001) > externForcingPeriod = 43200.0,
(PID.TID 0000.0001) > externForcingCycle = 2764800.0,
(PID.TID 0000.0001) > monitorFreq=1.,
(PID.TID 0000.0001) > /
(PID.TID 0000.0001) >
(PID.TID 0000.0001) ># Gridding parameters
(PID.TID 0000.0001) >#
(PID.TID 0000.0001) >#   usingSphericalPolarGrid - On/Off flag for spherical polar coordinates
(PID.TID 0000.0001) >#   delX                    - Zonal grid spacing         (degrees)
(PID.TID 0000.0001) >#   delY                    - Meridional grid spacing    (degrees)
(PID.TID 0000.0001) >#   delZ                    - Vertical grid spacing      (m)
(PID.TID 0000.0001) >#   ygOrigin                - Southern boundary latitude (degrees)
(PID.TID 0000.0001) >#
(PID.TID 0000.0001) > &PARM04
(PID.TID 0000.0001) > usingSphericalPolarGrid = .TRUE.,
(PID.TID 0000.0001) > delX   = 20*2.,
(PID.TID 0000.0001) > delY   = 16*2.,
(PID.TID 0000.0001) > delZ= 10., 10., 15., 20., 20., 25., 35., 50., 75.,
(PID.TID 0000.0001) >       100., 150., 200., 275., 350., 415., 450.,
(PID.TID 0000.0001) >       500., 500., 500., 500., 500., 500., 500.,
(PID.TID 0000.0001) > ygOrigin = 10.,
(PID.TID 0000.0001) > xgOrigin= -42.,
(PID.TID 0000.0001) > /
(PID.TID 0000.0001) >
(PID.TID 0000.0001) ># Input datasets
(PID.TID 0000.0001) >#
(PID.TID 0000.0001) >#   bathyFile       - File containing bathymetry
(PID.TID 0000.0001) >#   hydrogThetaFile - File containing initial potential temperature data
(PID.TID 0000.0001) >#   hydrogSaltFile  - File containing initial salinity data
(PID.TID 0000.0001) >#   zonalWindFile   - File containing zonal wind data
(PID.TID 0000.0001) >#   meridWindFile   - File containing meridional wind data
(PID.TID 0000.0001) >#   thetaClimFile   - File containing theta climatology used for relaxation
(PID.TID 0000.0001) >#   saltClimFile    - File containing salt climatology used for relaxation
(PID.TID 0000.0001) >#
(PID.TID 0000.0001) > &PARM05
(PID.TID 0000.0001) > bathyFile       = 'kf_topog',
(PID.TID 0000.0001) > hydrogThetaFile = 'kf_climtheta',
(PID.TID 0000.0001) > hydrogSaltFile  = 'kf_climsalt',
(PID.TID 0000.0001) > zonalWindFile   = 'kf_tx',
(PID.TID 0000.0001) > meridWindFile   = 'kf_ty',
(PID.TID 0000.0001) > thetaClimFile   = 'kf_sst',
(PID.TID 0000.0001) > saltClimFile    = 'kf_sss',
(PID.TID 0000.0001) > surfQFile       = 'kf_qnet',
(PID.TID 0000.0001) > EmPmRFile       = 'kf_empmr',
(PID.TID 0000.0001) > surfQswFile     = 'kf_sw',
(PID.TID 0000.0001) > /
(PID.TID 0000.0001) 
(PID.TID 0000.0001)  INI_PARMS ; starts to read PARM01
(PID.TID 0000.0001)  INI_PARMS ; read PARM01 : OK
(PID.TID 0000.0001)  INI_PARMS ; starts to read PARM02
(PID.TID 0000.0001)  INI_PARMS ; read PARM02 : OK
(PID.TID 0000.0001)  INI_PARMS ; starts to read PARM03
(PID.TID 0000.0001)  INI_PARMS ; read PARM03 : OK
(PID.TID 0000.0001)  INI_PARMS ; starts to read PARM04
(PID.TID 0000.0001)  INI_PARMS ; read PARM04 : OK
(PID.TID 0000.0001)  INI_PARMS ; starts to read PARM05
(PID.TID 0000.0001)  INI_PARMS ; read PARM05 : OK
(PID.TID 0000.0001)  INI_PARMS: finished reading file "data"
(PID.TID 0000.0001)  PACKAGES_BOOT: opening data.pkg
(PID.TID 0000.0001)  OPEN_COPY_DATA_FILE: opening file data.pkg
(PID.TID 0000.0001) // =======================================================
(PID.TID 0000.0001) // Parameter file "data.pkg"
(PID.TID 0000.0001) // =======================================================
(PID.TID 0000.0001) ># Packages
(PID.TID 0000.0001) > &PACKAGES
(PID.TID 0000.0001) >  useGMRedi=.FALSE.,
(PID.TID 0000.0001) >  useKPP=.TRUE.,
(PID.TID 0000.0001) >  useECCO=.FALSE.,
(PID.TID 0000.0001) >  usediagnostics=.TRUE.,
(PID.TID 0000.0001) > /
(PID.TID 0000.0001) 
(PID.TID 0000.0001)  PACKAGES_BOOT: finished reading data.pkg
(PID.TID 0000.0001)  KPP_INIT: opening data.kpp
(PID.TID 0000.0001)  OPEN_COPY_DATA_FILE: opening file data.kpp
(PID.TID 0000.0001) // =======================================================
(PID.TID 0000.0001) // Parameter file "data.kpp"
(PID.TID 0000.0001) // =======================================================
(PID.TID 0000.0001) ># KPP parameters
(PID.TID 0000.0001) > &KPP_PARM01
(PID.TID 0000.0001) > KPPmixingMaps   = .FALSE.,
(PID.TID 0000.0001) > KPPwriteState   = .TRUE.,
(PID.TID 0000.0001) > /
(PID.TID 0000.0001) 
(PID.TID 0000.0001)  KPP_INIT: finished reading data.kpp
(PID.TID 0000.0001)  DIAGNOSTICS_READPARMS: opening data.diagnostics
(PID.TID 0000.0001)  OPEN_COPY_DATA_FILE: opening file data.diagnostics
(PID.TID 0000.0001) // =======================================================
(PID.TID 0000.0001) // Parameter file "data.diagnostics"
(PID.TID 0000.0001) // =======================================================
(PID.TID 0000.0001) ># Diagnostic Package Choices
(PID.TID 0000.0001) >#--------------------
(PID.TID 0000.0001) >#  dumpAtLast (logical): always write output at the end of simulation (default=F)
(PID.TID 0000.0001) >#  diag_mnc   (logical): write to NetCDF files (default=useMNC)
(PID.TID 0000.0001) >#--for each output-stream:
(PID.TID 0000.0001) >#  fileName(n) : prefix of the output file name (max 80c long) for outp.stream n
(PID.TID 0000.0001) >#  frequency(n):< 0 : write snap-shot output every |frequency| seconds
(PID.TID 0000.0001) >#               > 0 : write time-average output every frequency seconds
(PID.TID 0000.0001) >#  timePhase(n)     : write at time = timePhase + multiple of |frequency|
(PID.TID 0000.0001) >#    averagingFreq  : frequency (in s) for periodic averaging interval
(PID.TID 0000.0001) >#    averagingPhase : phase     (in s) for periodic averaging interval
(PID.TID 0000.0001) >#    repeatCycle    : number of averaging intervals in 1 cycle
(PID.TID 0000.0001) >#  levels(:,n) : list of levels to write to file (Notes: declared as REAL)
(PID.TID 0000.0001) >#                when this entry is missing, select all common levels of this list
(PID.TID 0000.0001) >#  fields(:,n) : list of selected diagnostics fields (8.c) in outp.stream n
(PID.TID 0000.0001) >#                (see "available_diagnostics.log" file for the full list of diags)
(PID.TID 0000.0001) >#  missing_value(n) : missing value for real-type fields in output file "n"
(PID.TID 0000.0001) >#  fileFlags(n)     : specific code (8c string) for output file "n"
(PID.TID 0000.0001) >#--------------------
(PID.TID 0000.0001) ># This example dumps snapshot of all KPP diagnostics every day,
(PID.TID 0000.0001) >#  at mid day (t=12.h, baseTime=6.h, deltaT=1.h => iter=6)
(PID.TID 0000.0001) > &DIAGNOSTICS_LIST
(PID.TID 0000.0001) >  fields(1:4,1)  = 'KPPviscA','KPPdiffS','KPPdiffT','KPPghatK',
(PID.TID 0000.0001) >   fileName(1) = 'diag3dKPP',
(PID.TID 0000.0001) >  frequency(1) = -86400.,
(PID.TID 0000.0001) >  fields(1:3,2)  = 'KPPhbl  ','KPPfrac ','MXLDEPTH',
(PID.TID 0000.0001) >   fileName(2) = 'diag2dKPP',
(PID.TID 0000.0001) >  frequency(2) = -86400.,
(PID.TID 0000.0001) > /
(PID.TID 0000.0001) >
(PID.TID 0000.0001) >#--------------------
(PID.TID 0000.0001) ># Parameter for Diagnostics of per level statistics:
(PID.TID 0000.0001) >#--------------------
(PID.TID 0000.0001) >#  diagSt_mnc (logical): write stat-diags to NetCDF files (default=diag_mnc)
(PID.TID 0000.0001) >#  diagSt_regMaskFile : file containing the region-mask to read-in
(PID.TID 0000.0001) >#  nSetRegMskFile   : number of region-mask sets within the region-mask file
(PID.TID 0000.0001) >#  set_regMask(i)   : region-mask set-index that identifies the region "i"
(PID.TID 0000.0001) >#  val_regMask(i)   : region "i" identifier value in the region mask
(PID.TID 0000.0001) >#--for each output-stream:
(PID.TID 0000.0001) >#  stat_fName(n) : prefix of the output file name (max 80c long) for outp.stream n
(PID.TID 0000.0001) >#  stat_freq(n):< 0 : write snap-shot output every |stat_freq| seconds
(PID.TID 0000.0001) >#               > 0 : write time-average output every stat_freq seconds
(PID.TID 0000.0001) >#  stat_phase(n)    : write at time = stat_phase + multiple of |stat_freq|
(PID.TID 0000.0001) >#  stat_region(:,n) : list of "regions" (default: 1 region only=global)
(PID.TID 0000.0001) >#  stat_fields(:,n) : list of selected diagnostics fields (8.c) in outp.stream n
(PID.TID 0000.0001) >#                (see "available_diagnostics.log" file for the full list of diags)
(PID.TID 0000.0001) >#--------------------
(PID.TID 0000.0001) > &DIAG_STATIS_PARMS
(PID.TID 0000.0001) >#- an example just to check the agreement with MONITOR output:
(PID.TID 0000.0001) >#stat_fields(1:5,1)  = 'ETAN    ','UVEL    ','VVEL    ','WVEL    ', 'THETA   ',
(PID.TID 0000.0001) ># stat_fName(1) = 'dynStDiag',
(PID.TID 0000.0001) >#  stat_freq(1) = -864000.,
(PID.TID 0000.0001) ># stat_phase(1) = 0.,
(PID.TID 0000.0001) > /
(PID.TID 0000.0001) >
(PID.TID 0000.0001) 
(PID.TID 0000.0001) S/R DIAGNOSTICS_READPARMS, read namelist "diagnostics_list": start
(PID.TID 0000.0001) S/R DIAGNOSTICS_READPARMS, read namelist "diagnostics_list": OK
(PID.TID 0000.0001) S/R DIAGNOSTICS_READPARMS, read namelist "DIAG_STATIS_PARMS": start
(PID.TID 0000.0001) S/R DIAGNOSTICS_READPARMS, read namelist "DIAG_STATIS_PARMS": OK
(PID.TID 0000.0001)  DIAGNOSTICS_READPARMS: global parameter summary:
(PID.TID 0000.0001)  dumpAtLast = /* always write time-ave diags at the end */
(PID.TID 0000.0001)                   F
(PID.TID 0000.0001)     ;
(PID.TID 0000.0001)  diag_mnc =   /* write NetCDF output files */
(PID.TID 0000.0001)                   F
(PID.TID 0000.0001)     ;
(PID.TID 0000.0001)  useMissingValue = /* put MissingValue where mask = 0 */
(PID.TID 0000.0001)                   F
(PID.TID 0000.0001)     ;
(PID.TID 0000.0001)  diagCG_maxIters = /* max number of iters in diag_cg2d */
(PID.TID 0000.0001)                    1000
(PID.TID 0000.0001)     ;
(PID.TID 0000.0001)  diagCG_resTarget = /* residual target for diag_cg2d */
(PID.TID 0000.0001)                 1.000000000000000E-13
(PID.TID 0000.0001)     ;
(PID.TID 0000.0001) -----------------------------------------------------
(PID.TID 0000.0001)  DIAGNOSTICS_READPARMS: active diagnostics summary:
(PID.TID 0000.0001) -----------------------------------------------------
(PID.TID 0000.0001) Creating Output Stream: diag3dKPP
(PID.TID 0000.0001) Output Frequency:     -86400.000000 ; Phase:       43200.000000
(PID.TID 0000.0001)  Averaging Freq.:          0.000000 , Phase:           0.000000 , Cycle:   1
(PID.TID 0000.0001)  missing value:  1.234567000000E+05 ; for integers:   123456789
(PID.TID 0000.0001)  Levels:    will be set later
(PID.TID 0000.0001)  Fields:    KPPviscA KPPdiffS KPPdiffT KPPghatK
(PID.TID 0000.0001) Creating Output Stream: diag2dKPP
(PID.TID 0000.0001) Output Frequency:     -86400.000000 ; Phase:       43200.000000
(PID.TID 0000.0001)  Averaging Freq.:          0.000000 , Phase:           0.000000 , Cycle:   1
(PID.TID 0000.0001)  missing value:  1.234567000000E+05 ; for integers:   123456789
(PID.TID 0000.0001)  Levels:    will be set later
(PID.TID 0000.0001)  Fields:    KPPhbl   KPPfrac  MXLDEPTH
(PID.TID 0000.0001) -----------------------------------------------------
(PID.TID 0000.0001)  DIAGNOSTICS_READPARMS: statistics diags. summary:
(PID.TID 0000.0001) -----------------------------------------------------
(PID.TID 0000.0001) 
(PID.TID 0000.0001) SET_PARMS: done
(PID.TID 0000.0001) Enter INI_VERTICAL_GRID: setInterFDr=    T ; setCenterDr=    F
(PID.TID 0000.0001) %MON XC_max                       =  -3.0000000000000E+00
(PID.TID 0000.0001) %MON XC_min                       =  -4.1000000000000E+01
(PID.TID 0000.0001) %MON XC_mean                      =  -2.2000000000000E+01
(PID.TID 0000.0001) %MON XC_sd                        =   1.1532562594671E+01
(PID.TID 0000.0001) %MON XG_max                       =  -4.0000000000000E+00
(PID.TID 0000.0001) %MON XG_min                       =  -4.2000000000000E+01
(PID.TID 0000.0001) %MON XG_mean                      =  -2.3000000000000E+01
(PID.TID 0000.0001) %MON XG_sd                        =   1.1532562594671E+01
(PID.TID 0000.0001) %MON DXC_max                      =   2.1826966005878E+05
(PID.TID 0000.0001) %MON DXC_min                      =   1.6781340848749E+05
(PID.TID 0000.0001) %MON DXC_mean                     =   1.9727395728441E+05
(PID.TID 0000.0001) %MON DXC_sd                       =   1.5731168072696E+04
(PID.TID 0000.0001) %MON DXF_max                      =   2.1826966005878E+05
(PID.TID 0000.0001) %MON DXF_min                      =   1.6781340848749E+05
(PID.TID 0000.0001) %MON DXF_mean                     =   1.9727395728441E+05
(PID.TID 0000.0001) %MON DXF_sd                       =   1.5731168072696E+04
(PID.TID 0000.0001) %MON DXG_max                      =   2.1897687543479E+05
(PID.TID 0000.0001) %MON DXG_min                      =   1.7033377132268E+05
(PID.TID 0000.0001) %MON DXG_mean                     =   1.9892312861058E+05
(PID.TID 0000.0001) %MON DXG_sd                       =   1.5180938630473E+04
(PID.TID 0000.0001) %MON DXV_max                      =   2.1897687543479E+05
(PID.TID 0000.0001) %MON DXV_min                      =   1.7033377132268E+05
(PID.TID 0000.0001) %MON DXV_mean                     =   1.9892312861058E+05
(PID.TID 0000.0001) %MON DXV_sd                       =   1.5180938630473E+04
(PID.TID 0000.0001) %MON YC_max                       =   4.1000000000000E+01
(PID.TID 0000.0001) %MON YC_min                       =   1.1000000000000E+01
(PID.TID 0000.0001) %MON YC_mean                      =   2.6000000000000E+01
(PID.TID 0000.0001) %MON YC_sd                        =   9.2195444572929E+00
(PID.TID 0000.0001) %MON YG_max                       =   4.0000000000000E+01
(PID.TID 0000.0001) %MON YG_min                       =   1.0000000000000E+01
(PID.TID 0000.0001) %MON YG_mean                      =   2.5000000000000E+01
(PID.TID 0000.0001) %MON YG_sd                        =   9.2195444572929E+00
(PID.TID 0000.0001) %MON DYC_max                      =   2.2235494670408E+05
(PID.TID 0000.0001) %MON DYC_min                      =   2.2235494670408E+05
(PID.TID 0000.0001) %MON DYC_mean                     =   2.2235494670408E+05
(PID.TID 0000.0001) %MON DYC_sd                       =   4.6566128730774E-10
(PID.TID 0000.0001) %MON DYF_max                      =   2.2235494670408E+05
(PID.TID 0000.0001) %MON DYF_min                      =   2.2235494670408E+05
(PID.TID 0000.0001) %MON DYF_mean                     =   2.2235494670408E+05
(PID.TID 0000.0001) %MON DYF_sd                       =   4.6566128730774E-10
(PID.TID 0000.0001) %MON DYG_max                      =   2.2235494670408E+05
(PID.TID 0000.0001) %MON DYG_min                      =   2.2235494670408E+05
(PID.TID 0000.0001) %MON DYG_mean                     =   2.2235494670408E+05
(PID.TID 0000.0001) %MON DYG_sd                       =   4.6566128730774E-10
(PID.TID 0000.0001) %MON DYU_max                      =   2.2235494670408E+05
(PID.TID 0000.0001) %MON DYU_min                      =   2.2235494670408E+05
(PID.TID 0000.0001) %MON DYU_mean                     =   2.2235494670408E+05
(PID.TID 0000.0001) %MON DYU_sd                       =   4.6566128730774E-10
(PID.TID 0000.0001) %MON RA_max                       =   4.8530874650285E+10
(PID.TID 0000.0001) %MON RA_min                       =   3.7312247106402E+10
(PID.TID 0000.0001) %MON RA_mean                      =   4.3862613292919E+10
(PID.TID 0000.0001) %MON RA_sd                        =   3.4977254540690E+09
(PID.TID 0000.0001) %MON RAW_max                      =   4.8530874650285E+10
(PID.TID 0000.0001) %MON RAW_min                      =   3.7312247106402E+10
(PID.TID 0000.0001) %MON RAW_mean                     =   4.3862613292919E+10
(PID.TID 0000.0001) %MON RAW_sd                       =   3.4977254540690E+09
(PID.TID 0000.0001) %MON RAS_max                      =   4.8688119503989E+10
(PID.TID 0000.0001) %MON RAS_min                      =   3.7872633798691E+10
(PID.TID 0000.0001) %MON RAS_mean                     =   4.4229296078267E+10
(PID.TID 0000.0001) %MON RAS_sd                       =   3.3753854271397E+09
(PID.TID 0000.0001) %MON RAZ_max                      =   4.8688119503989E+10
(PID.TID 0000.0001) %MON RAZ_min                      =   3.7872633798691E+10
(PID.TID 0000.0001) %MON RAZ_mean                     =   4.4229296078267E+10
(PID.TID 0000.0001) %MON RAZ_sd                       =   3.3753854271397E+09
(PID.TID 0000.0001) %MON AngleCS_max                  =   1.0000000000000E+00
(PID.TID 0000.0001) %MON AngleCS_min                  =   1.0000000000000E+00
(PID.TID 0000.0001) %MON AngleCS_mean                 =   1.0000000000000E+00
(PID.TID 0000.0001) %MON AngleCS_sd                   =   0.0000000000000E+00
(PID.TID 0000.0001) %MON AngleSN_max                  =   0.0000000000000E+00
(PID.TID 0000.0001) %MON AngleSN_min                  =   0.0000000000000E+00
(PID.TID 0000.0001) %MON AngleSN_mean                 =   0.0000000000000E+00
(PID.TID 0000.0001) %MON AngleSN_sd                   =   0.0000000000000E+00
(PID.TID 0000.0001)  MDS_READ_FIELD: opening global file: kf_topog
(PID.TID 0000.0001) // =======================================================
(PID.TID 0000.0001) // Field Model R_low (ini_masks_etc)
(PID.TID 0000.0001) // CMIN =         -5.200000000000000E+03
(PID.TID 0000.0001) // CMAX =         -3.600000000000000E+02
(PID.TID 0000.0001) // CINT =          1.792592592592593E+02
(PID.TID 0000.0001) // SYMBOLS (CMIN->CMAX): -abcdefghijklmnopqrstuvwxyz+
(PID.TID 0000.0001) //                  0.0: .
(PID.TID 0000.0001) // RANGE I (Lo:Hi:Step):(    -3:    24:     1)
(PID.TID 0000.0001) // RANGE J (Lo:Hi:Step):(    20:    -3:    -1)
(PID.TID 0000.0001) // RANGE K (Lo:Hi:Step):(   1:   1:   1)
(PID.TID 0000.0001) // =======================================================
(PID.TID 0000.0001) K =   1
(PID.TID 0000.0001) //                I=6       I=8       I=18
(PID.TID 0000.0001) // |--J--|321012345|789012347|901234567|901234
(PID.TID 0000.0001) //     20 .....cc-----cfkhkz--cfkhkz.......cc-
(PID.TID 0000.0001) //     19 .....c-------cccfy---cccfy.......c--
(PID.TID 0000.0001) //     18 .....hcc------ccfx----ccfx.......hcc
(PID.TID 0000.0001) //     17 ....................................
(PID.TID 0000.0001) //     16 ....................................
(PID.TID 0000.0001) //     15 hv+..fhknsqknnff-cqknnff-ckhhv+..fhk
(PID.TID 0000.0001) //     14 fhx..hknnnnkhcc-chnkhcc-chhhfhx..hkn
(PID.TID 0000.0001) //     13 fz...knnkhknf--chkknf--chkfffz...knn
(PID.TID 0000.0001) //     12 q....nkhfffhc--cfffhc--cffhnq....nkh
(PID.TID 0000.0001) //     11 +....khfccccc-ccfkccc-ccfkkv+....khf
(PID.TID 0000.0001) //     10 .....hcc---cc-cfhk-cc-cfhks......hcc
(PID.TID 0000.0001) //      9 .....fc-------cfkq----cfkq.......fc-
(PID.TID 0000.0001) //      8 .....c-------ccfkx---ccfkx.......c--
(PID.TID 0000.0001) //      7 .....c---cfcccfhk+fcccfhk+.......c--
(PID.TID 0000.0001) //      6 .....c---cccffhknvccffhknv.......c--
(PID.TID 0000.0001) //      5 .....c--ccccfkkkkqccfkkkkq.......c--
(PID.TID 0000.0001) //     12 q....nkhfffhc--cfffhc--cffhnq....nkh
(PID.TID 0000.0001) //     11 +....khfccccc-ccfkccc-ccfkkv+....khf
(PID.TID 0000.0001) //     10 .....hcc---cc-cfhk-cc-cfhks......hcc
(PID.TID 0000.0001) //      9 .....fc-------cfkq----cfkq.......fc-
(PID.TID 0000.0001) //      8 .....c-------ccfkx---ccfkx.......c--
(PID.TID 0000.0001) //      7 .....c---cfcccfhk+fcccfhk+.......c--
(PID.TID 0000.0001) //      6 .....c---cccffhknvccffhknv.......c--
(PID.TID 0000.0001) //      5 .....c--ccccfkkkkqccfkkkkq.......c--
(PID.TID 0000.0001) //      4 .....cc-----cfkhkz--cfkhkz.......cc-
(PID.TID 0000.0001) //      3 .....c-------cccfy---cccfy.......c--
(PID.TID 0000.0001) //      2 .....hcc------ccfx----ccfx.......hcc
(PID.TID 0000.0001) //      1 ....................................
(PID.TID 0000.0001) //      0 ....................................
(PID.TID 0000.0001) //     -1 hv+..fhknsqknnff-cqknnff-ckhhv+..fhk
(PID.TID 0000.0001) //     -2 fhx..hknnnnkhcc-chnkhcc-chhhfhx..hkn
(PID.TID 0000.0001) //     -3 fz...knnkhknf--chkknf--chkfffz...knn
(PID.TID 0000.0001) // =======================================================
(PID.TID 0000.0001) // END OF FIELD                                          =
(PID.TID 0000.0001) // =======================================================
(PID.TID 0000.0001) 
(PID.TID 0000.0001) // =======================================================
(PID.TID 0000.0001) // Field Model Ro_surf (ini_masks_etc)
(PID.TID 0000.0001) // CMIN =          1.000000000000000E+32
(PID.TID 0000.0001) // CMAX =         -1.000000000000000E+32
(PID.TID 0000.0001) // CINT =          0.000000000000000E+00
(PID.TID 0000.0001) // SYMBOLS (CMIN->CMAX): -abcdefghijklmnopqrstuvwxyz+
(PID.TID 0000.0001) //                  0.0: .
(PID.TID 0000.0001) // RANGE I (Lo:Hi:Step):(    -3:    24:     1)
(PID.TID 0000.0001) // RANGE J (Lo:Hi:Step):(    20:    -3:    -1)
(PID.TID 0000.0001) // RANGE K (Lo:Hi:Step):(   1:   1:   1)
(PID.TID 0000.0001) // =======================================================
(PID.TID 0000.0001) // =======================================================
(PID.TID 0000.0001) // END OF FIELD                                          =
(PID.TID 0000.0001) // =======================================================
(PID.TID 0000.0001) 
(PID.TID 0000.0001) // =======================================================
(PID.TID 0000.0001) // Field hFacC at iteration          0
(PID.TID 0000.0001) // CMIN =          1.000000000000000E+00
(PID.TID 0000.0001) // CMAX =          1.000000000000000E+00
(PID.TID 0000.0001) // CINT =          0.000000000000000E+00
(PID.TID 0000.0001) // SYMBOLS (CMIN->CMAX): -abcdefghijklmnopqrstuvwxyz+
(PID.TID 0000.0001) //                  0.0: .
(PID.TID 0000.0001) // RANGE I (Lo:Hi:Step):(    -3:    24:     1)
(PID.TID 0000.0001) // RANGE J (Lo:Hi:Step):(    20:    -3:    -1)
(PID.TID 0000.0001) // RANGE K (Lo:Hi:Step):(   1:   1:   1)
(PID.TID 0000.0001) // =======================================================
(PID.TID 0000.0001) // =======================================================
(PID.TID 0000.0001) // END OF FIELD                                          =
(PID.TID 0000.0001) // =======================================================
(PID.TID 0000.0001) 
(PID.TID 0000.0001) // =======================================================
(PID.TID 0000.0001) // Field hFacW at iteration          0
(PID.TID 0000.0001) // CMIN =          1.000000000000000E+00
(PID.TID 0000.0001) // CMAX =          1.000000000000000E+00
(PID.TID 0000.0001) // CINT =          0.000000000000000E+00
(PID.TID 0000.0001) // SYMBOLS (CMIN->CMAX): -abcdefghijklmnopqrstuvwxyz+
(PID.TID 0000.0001) //                  0.0: .
(PID.TID 0000.0001) // RANGE I (Lo:Hi:Step):(    -3:    24:     1)
(PID.TID 0000.0001) // RANGE J (Lo:Hi:Step):(    20:    -3:    -1)
(PID.TID 0000.0001) // RANGE K (Lo:Hi:Step):(   1:   1:   1)
(PID.TID 0000.0001) // =======================================================
(PID.TID 0000.0001) // =======================================================
(PID.TID 0000.0001) // END OF FIELD                                          =
(PID.TID 0000.0001) // =======================================================
(PID.TID 0000.0001) 
(PID.TID 0000.0001) // =======================================================
(PID.TID 0000.0001) // Field hFacS at iteration          0
(PID.TID 0000.0001) // CMIN =          1.000000000000000E+00
(PID.TID 0000.0001) // CMAX =          1.000000000000000E+00
(PID.TID 0000.0001) // CINT =          0.000000000000000E+00
(PID.TID 0000.0001) // SYMBOLS (CMIN->CMAX): -abcdefghijklmnopqrstuvwxyz+
(PID.TID 0000.0001) //                  0.0: .
(PID.TID 0000.0001) // RANGE I (Lo:Hi:Step):(    -3:    24:     1)
(PID.TID 0000.0001) // RANGE J (Lo:Hi:Step):(    20:    -3:    -1)
(PID.TID 0000.0001) // RANGE K (Lo:Hi:Step):(   1:   1:   1)
(PID.TID 0000.0001) // =======================================================
(PID.TID 0000.0001) // =======================================================
(PID.TID 0000.0001) // END OF FIELD                                          =
(PID.TID 0000.0001) // =======================================================
(PID.TID 0000.0001) 
(PID.TID 0000.0001) GAD_INIT_FIXED: GAD_OlMinSize=  1  0  1
(PID.TID 0000.0001) 
(PID.TID 0000.0001) // ===================================
(PID.TID 0000.0001) // GAD parameters :
(PID.TID 0000.0001) // ===================================
(PID.TID 0000.0001) tempAdvScheme =   /* Temp. Horiz.Advection scheme selector */
(PID.TID 0000.0001)                       2
(PID.TID 0000.0001)     ;
(PID.TID 0000.0001) tempVertAdvScheme =   /* Temp. Vert. Advection scheme selector */
(PID.TID 0000.0001)                       2
(PID.TID 0000.0001)     ;
(PID.TID 0000.0001) tempMultiDimAdvec =   /* use Muti-Dim Advec method for Temp */
(PID.TID 0000.0001)                   F
(PID.TID 0000.0001)     ;
(PID.TID 0000.0001) tempSOM_Advection = /* use 2nd Order Moment Advection for Temp */
(PID.TID 0000.0001)                   F
(PID.TID 0000.0001)     ;
(PID.TID 0000.0001) AdamsBashforthGt = /* apply Adams-Bashforth extrapolation on Gt */
(PID.TID 0000.0001)                   T
(PID.TID 0000.0001)     ;
(PID.TID 0000.0001) AdamsBashforth_T = /* apply Adams-Bashforth extrapolation on Temp */
(PID.TID 0000.0001)                   F
(PID.TID 0000.0001)     ;
(PID.TID 0000.0001) saltAdvScheme =   /* Salt. Horiz.advection scheme selector */
(PID.TID 0000.0001)                       2
(PID.TID 0000.0001)     ;
(PID.TID 0000.0001) saltVertAdvScheme =   /* Salt. Vert. Advection scheme selector */
(PID.TID 0000.0001)                       2
(PID.TID 0000.0001)     ;
(PID.TID 0000.0001) saltMultiDimAdvec =   /* use Muti-Dim Advec method for Salt */
(PID.TID 0000.0001)                   F
(PID.TID 0000.0001)     ;
(PID.TID 0000.0001) saltSOM_Advection = /* use 2nd Order Moment Advection for Salt */
(PID.TID 0000.0001)                   F
(PID.TID 0000.0001)     ;
(PID.TID 0000.0001) AdamsBashforthGs = /* apply Adams-Bashforth extrapolation on Gs */
(PID.TID 0000.0001)                   T
(PID.TID 0000.0001)     ;
(PID.TID 0000.0001) AdamsBashforth_S = /* apply Adams-Bashforth extrapolation on Salt */
(PID.TID 0000.0001)                   F
(PID.TID 0000.0001)     ;
(PID.TID 0000.0001) // ===================================
(PID.TID 0000.0001) ------------------------------------------------------------
(PID.TID 0000.0001) DIAGNOSTICS_SET_LEVELS: done
(PID.TID 0000.0001)  Total Nb of available Diagnostics: ndiagt=   194
(PID.TID 0000.0001)  write list of available Diagnostics to file: available_diagnostics.log
(PID.TID 0000.0001) SETDIAG: Allocate 23 x  1 Levels for Diagnostic #   179 KPPviscA
(PID.TID 0000.0001) SETDIAG: Allocate 23 x  1 Levels for Diagnostic #   180 KPPdiffS
(PID.TID 0000.0001) SETDIAG: Allocate 23 x  1 Levels for Diagnostic #   181 KPPdiffT
(PID.TID 0000.0001) SETDIAG: Allocate 23 x  1 Levels for Diagnostic #   182 KPPghatK
(PID.TID 0000.0001) SETDIAG: Allocate  1 x  1 Levels for Diagnostic #   183 KPPhbl
(PID.TID 0000.0001) SETDIAG: Allocate  1 x  1 Levels for Diagnostic #   184 KPPfrac
(PID.TID 0000.0001) SETDIAG: Allocate  1 x  1 Levels for Diagnostic #    73 MXLDEPTH
(PID.TID 0000.0001)   space allocated for all diagnostics:      95 levels
(PID.TID 0000.0001) DIAGNOSTICS_SET_POINTERS: Set levels for Outp.Stream: diag3dKPP
(PID.TID 0000.0001)  Levels:       1.   2.   3.   4.   5.   6.   7.   8.   9.  10.  11.  12.  13.  14.  15.  16.  17.  18.  19.  20.
(PID.TID 0000.0001)  Levels:      21.  22.  23.
(PID.TID 0000.0001) DIAGNOSTICS_SET_POINTERS: Set levels for Outp.Stream: diag2dKPP
(PID.TID 0000.0001)  Levels:       1.
(PID.TID 0000.0001) DIAGNOSTICS_SET_POINTERS: done
(PID.TID 0000.0001) ------------------------------------------------------------
(PID.TID 0000.0001) DIAGSTATS_SET_REGIONS: define no region
(PID.TID 0000.0001) ------------------------------------------------------------
(PID.TID 0000.0001)   space allocated for all stats-diags:       0 levels
(PID.TID 0000.0001) DIAGSTATS_SET_POINTERS: done
(PID.TID 0000.0001) ------------------------------------------------------------
(PID.TID 0000.0001) %MON fCori_max                    =   9.5681269476711E-05
(PID.TID 0000.0001) %MON fCori_min                    =   2.7828055248772E-05
(PID.TID 0000.0001) %MON fCori_mean                   =   6.3108629295410E-05
(PID.TID 0000.0001) %MON fCori_sd                     =   2.0943015160624E-05
(PID.TID 0000.0001) %MON fCoriG_max                   =   9.3745732900505E-05
(PID.TID 0000.0001) %MON fCoriG_min                   =   2.5325279200951E-05
(PID.TID 0000.0001) %MON fCoriG_mean                  =   6.0840818126420E-05
(PID.TID 0000.0001) %MON fCoriG_sd                    =   2.1116986447899E-05
(PID.TID 0000.0001) %MON fCoriCos_max                 =   1.4316293338671E-04
(PID.TID 0000.0001) %MON fCoriCos_min                 =   1.1006870956881E-04
(PID.TID 0000.0001) %MON fCoriCos_mean                =   1.2939186508118E-04
(PID.TID 0000.0001) %MON fCoriCos_sd                  =   1.0318063290519E-05
(PID.TID 0000.0001) INI_CG2D: CG2D normalisation factor =  1.5752923928634454E-04
(PID.TID 0000.0001) 
(PID.TID 0000.0001) // =======================================================
(PID.TID 0000.0001) // Model configuration
(PID.TID 0000.0001) // =======================================================
(PID.TID 0000.0001) //
(PID.TID 0000.0001) // "Physical" paramters ( PARM01 in namelist )
(PID.TID 0000.0001) //
(PID.TID 0000.0001) buoyancyRelation = /* Type of relation to get Buoyancy */
(PID.TID 0000.0001)               'OCEANIC'
(PID.TID 0000.0001)     ;
(PID.TID 0000.0001) fluidIsAir   =  /* fluid major constituent is Air */
(PID.TID 0000.0001)                   F
(PID.TID 0000.0001)     ;
(PID.TID 0000.0001) fluidIsWater =  /* fluid major constituent is Water */
(PID.TID 0000.0001)                   T
(PID.TID 0000.0001)     ;
(PID.TID 0000.0001) usingPCoords =  /* use p (or p*) vertical coordinate */
(PID.TID 0000.0001)                   F
(PID.TID 0000.0001)     ;
(PID.TID 0000.0001) usingZCoords =  /* use z (or z*) vertical coordinate */
(PID.TID 0000.0001)                   T
(PID.TID 0000.0001)     ;
(PID.TID 0000.0001) tRef =   /* Reference temperature profile ( oC or K ) */
(PID.TID 0000.0001)    23 @  2.000000000000000E+01              /* K =  1: 23 */
(PID.TID 0000.0001)     ;
(PID.TID 0000.0001) sRef =   /* Reference salinity profile ( psu ) */
(PID.TID 0000.0001)    23 @  3.000000000000000E+01              /* K =  1: 23 */
(PID.TID 0000.0001)     ;
(PID.TID 0000.0001) viscAh  =   /* Lateral eddy viscosity ( m^2/s ) */
(PID.TID 0000.0001)                 5.000000000000000E+04
(PID.TID 0000.0001)     ;
(PID.TID 0000.0001) viscAhMax = /* Maximum lateral eddy viscosity ( m^2/s ) */
(PID.TID 0000.0001)                 1.000000000000000E+21
(PID.TID 0000.0001)     ;
(PID.TID 0000.0001) viscAhGrid = /* Grid dependent lateral eddy viscosity ( non-dim. ) */
(PID.TID 0000.0001)                 0.000000000000000E+00
(PID.TID 0000.0001)     ;
(PID.TID 0000.0001) useFullLeith = /* Use Full Form of Leith Viscosity on/off flag*/
(PID.TID 0000.0001)                   F
(PID.TID 0000.0001)     ;
(PID.TID 0000.0001) useStrainTensionVisc= /* Use StrainTension Form of Viscous Operator flag*/
(PID.TID 0000.0001)                   F
(PID.TID 0000.0001)     ;
(PID.TID 0000.0001) useAreaViscLength = /* Use area for visc length instead of geom. mean*/
(PID.TID 0000.0001)                   F
(PID.TID 0000.0001)     ;
(PID.TID 0000.0001) viscC2leith = /* Leith harmonic visc. factor (on grad(vort),non-dim.) */
(PID.TID 0000.0001)                 0.000000000000000E+00
(PID.TID 0000.0001)     ;
(PID.TID 0000.0001) viscC2leithD = /* Leith harmonic viscosity factor (on grad(div),non-dim.)*/
(PID.TID 0000.0001)                 0.000000000000000E+00
(PID.TID 0000.0001)     ;
(PID.TID 0000.0001) viscC2smag = /* Smagorinsky harmonic viscosity factor (non-dim.) */
(PID.TID 0000.0001)                 0.000000000000000E+00
(PID.TID 0000.0001)     ;
(PID.TID 0000.0001) viscA4  =   /* Lateral biharmonic viscosity ( m^4/s ) */
(PID.TID 0000.0001)                 5.000000000000000E+12
(PID.TID 0000.0001)     ;
(PID.TID 0000.0001) viscA4Max = /* Maximum biharmonic viscosity ( m^2/s ) */
(PID.TID 0000.0001)                 1.000000000000000E+21
(PID.TID 0000.0001)     ;
(PID.TID 0000.0001) viscA4Grid = /* Grid dependent biharmonic viscosity ( non-dim. ) */
(PID.TID 0000.0001)                 0.000000000000000E+00
(PID.TID 0000.0001)     ;
(PID.TID 0000.0001) viscC4leith = /* Leith biharm viscosity factor (on grad(vort), non-dim.)*/
(PID.TID 0000.0001)                 0.000000000000000E+00
(PID.TID 0000.0001)     ;
(PID.TID 0000.0001) viscC4leithD = /* Leith biharm viscosity factor (on grad(div), non-dim.) */
(PID.TID 0000.0001)                 0.000000000000000E+00
(PID.TID 0000.0001)     ;
(PID.TID 0000.0001) viscC4Smag = /* Smagorinsky biharm viscosity factor (non-dim) */
(PID.TID 0000.0001)                 0.000000000000000E+00
(PID.TID 0000.0001)     ;
(PID.TID 0000.0001) no_slip_sides =  /* Viscous BCs: No-slip sides */
(PID.TID 0000.0001)                   F
(PID.TID 0000.0001)     ;
(PID.TID 0000.0001) sideDragFactor = /* side-drag scaling factor (non-dim) */
(PID.TID 0000.0001)                 2.000000000000000E+00
(PID.TID 0000.0001)     ;
(PID.TID 0000.0001) viscArNr = /* vertical profile of vertical viscosity ( m^2/s )*/
(PID.TID 0000.0001)    23 @  1.000000000000000E-03              /* K =  1: 23 */
(PID.TID 0000.0001)     ;
(PID.TID 0000.0001) no_slip_bottom =  /* Viscous BCs: No-slip bottom */
(PID.TID 0000.0001)                   T
(PID.TID 0000.0001)     ;
(PID.TID 0000.0001) bottomDragLinear = /* linear bottom-drag coefficient ( m/s ) */
(PID.TID 0000.0001)                 0.000000000000000E+00
(PID.TID 0000.0001)     ;
(PID.TID 0000.0001) bottomDragQuadratic = /* quadratic bottom-drag coefficient (-) */
(PID.TID 0000.0001)                 0.000000000000000E+00
(PID.TID 0000.0001)     ;
(PID.TID 0000.0001) diffKhT =   /* Laplacian diffusion of heat laterally ( m^2/s ) */
(PID.TID 0000.0001)                 1.000000000000000E+03
(PID.TID 0000.0001)     ;
(PID.TID 0000.0001) diffK4T =   /* Biharmonic diffusion of heat laterally ( m^4/s ) */
(PID.TID 0000.0001)                 0.000000000000000E+00
(PID.TID 0000.0001)     ;
(PID.TID 0000.0001) diffKhS =   /* Laplacian diffusion of salt laterally ( m^2/s ) */
(PID.TID 0000.0001)                 1.000000000000000E+03
(PID.TID 0000.0001)     ;
(PID.TID 0000.0001) diffK4S =   /* Biharmonic diffusion of salt laterally ( m^4/s ) */
(PID.TID 0000.0001)                 0.000000000000000E+00
(PID.TID 0000.0001)     ;
(PID.TID 0000.0001) diffKrNrT = /* vertical profile of vertical diffusion of Temp ( m^2/s )*/
(PID.TID 0000.0001)    23 @  1.000000000000000E-05              /* K =  1: 23 */
(PID.TID 0000.0001)     ;
(PID.TID 0000.0001) diffKrNrS = /* vertical profile of vertical diffusion of Salt ( m^2/s )*/
(PID.TID 0000.0001)    23 @  1.000000000000000E-05              /* K =  1: 23 */
(PID.TID 0000.0001)     ;
(PID.TID 0000.0001) diffKrBL79surf = /* Surface diffusion for Bryan and Lewis 79 ( m^2/s ) */
(PID.TID 0000.0001)                 0.000000000000000E+00
(PID.TID 0000.0001)     ;
(PID.TID 0000.0001) diffKrBL79deep = /* Deep diffusion for Bryan and Lewis 1979 ( m^2/s ) */
(PID.TID 0000.0001)                 0.000000000000000E+00
(PID.TID 0000.0001)     ;
(PID.TID 0000.0001) diffKrBL79scl = /* Depth scale for Bryan and Lewis 1979 ( m ) */
(PID.TID 0000.0001)                 2.000000000000000E+02
(PID.TID 0000.0001)     ;
(PID.TID 0000.0001) diffKrBL79Ho = /* Turning depth for Bryan and Lewis 1979 ( m ) */
(PID.TID 0000.0001)                -2.000000000000000E+03
(PID.TID 0000.0001)     ;
(PID.TID 0000.0001) ivdc_kappa = /* Implicit Vertical Diffusivity for Convection ( m^2/s) */
(PID.TID 0000.0001)                 0.000000000000000E+00
(PID.TID 0000.0001)     ;
(PID.TID 0000.0001) hMixCriteria=  /* Criteria for mixed-layer diagnostic */
(PID.TID 0000.0001)                -8.000000000000000E-01
(PID.TID 0000.0001)     ;
(PID.TID 0000.0001) dRhoSmall =  /* Parameter for mixed-layer diagnostic */
(PID.TID 0000.0001)                 1.000000000000000E-06
(PID.TID 0000.0001)     ;
(PID.TID 0000.0001) hMixSmooth=  /* Smoothing parameter for mixed-layer diagnostic */
(PID.TID 0000.0001)                 0.000000000000000E+00
(PID.TID 0000.0001)     ;
(PID.TID 0000.0001) eosType =  /* Type of Equation of State */
(PID.TID 0000.0001)               'POLY3 '
(PID.TID 0000.0001)     ;
(PID.TID 0000.0001) tAlpha =   /* Linear EOS thermal expansion coefficient ( 1/oC ) */
(PID.TID 0000.0001)                 2.000000000000000E-04
(PID.TID 0000.0001)     ;
(PID.TID 0000.0001) sBeta =   /* Linear EOS haline contraction coefficient ( 1/psu ) */
(PID.TID 0000.0001)                 7.400000000000000E-04
(PID.TID 0000.0001)     ;
(PID.TID 0000.0001)   1  13.499  32.600  24.480  -0.201   0.771  -0.005  -0.002   0.000   0.000   0.000   0.000   0.000
(PID.TID 0000.0001)   2  13.498  32.600  24.525  -0.202   0.771  -0.005  -0.002   0.000   0.000   0.000   0.000   0.000
(PID.TID 0000.0001)   3  13.496  32.600  24.581  -0.202   0.771  -0.005  -0.002   0.000   0.000   0.000   0.000   0.000
(PID.TID 0000.0001)   4  13.494  32.600  24.660  -0.202   0.771  -0.005  -0.002   0.000   0.000   0.000   0.000   0.000
(PID.TID 0000.0001)   5  13.491  32.600  24.750  -0.203   0.771  -0.005  -0.002   0.000   0.000   0.000   0.000   0.000
(PID.TID 0000.0001)   6  13.488  32.600  24.851  -0.203   0.770  -0.005  -0.002   0.000   0.000   0.000   0.000   0.000
(PID.TID 0000.0001)   7  13.484  32.600  24.985  -0.204   0.770  -0.005  -0.002   0.000   0.000   0.000   0.000   0.000
(PID.TID 0000.0001)   8  13.478  32.600  25.176  -0.204   0.770  -0.005  -0.002   0.000   0.000   0.000   0.000   0.000
(PID.TID 0000.0001)   9  13.469  32.600  25.456  -0.205   0.769  -0.005  -0.002   0.000   0.000   0.000   0.000   0.000
(PID.TID 0000.0001)  10   8.467  35.150  28.748  -0.163   0.781  -0.005  -0.002   0.001   0.000   0.000   0.000   0.000
(PID.TID 0000.0001)  11   8.454  35.150  29.315  -0.166   0.780  -0.005  -0.002   0.001   0.000   0.000   0.000   0.000
(PID.TID 0000.0001)  12   5.946  34.900  30.300  -0.143   0.785  -0.006  -0.002   0.001   0.000   0.000   0.000   0.000
(PID.TID 0000.0001)  13   4.433  34.900  31.591  -0.132   0.786  -0.006  -0.003   0.000   0.000   0.000   0.000   0.000
(PID.TID 0000.0001)  14   3.909  34.750  32.966  -0.134   0.785  -0.006  -0.003   0.000   0.000   0.000   0.000   0.000
(PID.TID 0000.0001)  15   1.899  34.800  35.002  -0.121   0.787  -0.006  -0.003  -0.000   0.000   0.000   0.000   0.000
(PID.TID 0000.0001)  16   1.372  34.750  36.991  -0.127   0.785  -0.006  -0.003  -0.001   0.000   0.000   0.000   0.000
(PID.TID 0000.0001)  17   1.332  34.800  39.171  -0.140   0.782  -0.006  -0.003  -0.001   0.000   0.000   0.000   0.000
(PID.TID 0000.0001)  18   0.797  34.800  41.472  -0.147   0.779  -0.006  -0.003  -0.001   0.000   0.000   0.000   0.000
(PID.TID 0000.0001)  19   0.749  34.800  43.682  -0.160   0.775  -0.005  -0.002  -0.002   0.000   0.000   0.000   0.000
(PID.TID 0000.0001)  20   0.214  34.750  45.912  -0.168   0.772  -0.005  -0.002  -0.002   0.000   0.000   0.000   0.000
(PID.TID 0000.0001)  21   0.160  34.750  48.080  -0.181   0.768  -0.005  -0.002  -0.003   0.000   0.000   0.000   0.000
(PID.TID 0000.0001)  22   0.584  34.750  50.131  -0.197   0.763  -0.005  -0.002  -0.001   0.000   0.000   0.000   0.000
(PID.TID 0000.0001)  23   0.522  34.750  52.248  -0.209   0.760  -0.005  -0.002  -0.002   0.000   0.000   0.000   0.000
(PID.TID 0000.0001) rhonil =   /* Reference density ( kg/m^3 ) */
(PID.TID 0000.0001)                 9.998000000000000E+02
(PID.TID 0000.0001)     ;
(PID.TID 0000.0001) rhoConst =   /* Reference density ( kg/m^3 ) */
(PID.TID 0000.0001)                 9.998000000000000E+02
(PID.TID 0000.0001)     ;
(PID.TID 0000.0001) rhoFacC = /* normalized Reference density @ cell-Center (-) */
(PID.TID 0000.0001)    23 @  1.000000000000000E+00              /* K =  1: 23 */
(PID.TID 0000.0001)     ;
(PID.TID 0000.0001) rhoFacF = /* normalized Reference density @ W-Interface (-) */
(PID.TID 0000.0001)    24 @  1.000000000000000E+00              /* K =  1: 24 */
(PID.TID 0000.0001)     ;
(PID.TID 0000.0001) rhoConstFresh =   /* Reference density ( kg/m^3 ) */
(PID.TID 0000.0001)                 9.998000000000000E+02
(PID.TID 0000.0001)     ;
(PID.TID 0000.0001) gravity =   /* Gravitational acceleration ( m/s^2 ) */
(PID.TID 0000.0001)                 9.810000000000000E+00
(PID.TID 0000.0001)     ;
(PID.TID 0000.0001) gBaro =   /* Barotropic gravity ( m/s^2 ) */
(PID.TID 0000.0001)                 9.810000000000000E+00
(PID.TID 0000.0001)     ;
(PID.TID 0000.0001) rotationPeriod =   /* Rotation Period ( s ) */
(PID.TID 0000.0001)                 8.616400000000000E+04
(PID.TID 0000.0001)     ;
(PID.TID 0000.0001) omega =   /* Angular velocity ( rad/s ) */
(PID.TID 0000.0001)                 7.292123516990375E-05
(PID.TID 0000.0001)     ;
(PID.TID 0000.0001) f0 =   /* Reference coriolis parameter ( 1/s ) */
(PID.TID 0000.0001)                 1.000000000000000E-04
(PID.TID 0000.0001)     ;
(PID.TID 0000.0001) beta =   /* Beta ( 1/(m.s) ) */
(PID.TID 0000.0001)                 9.999999999999999E-12
(PID.TID 0000.0001)     ;
(PID.TID 0000.0001) fPrime =   /* Second coriolis parameter ( 1/s ) */
(PID.TID 0000.0001)                 0.000000000000000E+00
(PID.TID 0000.0001)     ;
(PID.TID 0000.0001) rigidLid =   /* Rigid lid on/off flag */
(PID.TID 0000.0001)                   F
(PID.TID 0000.0001)     ;
(PID.TID 0000.0001) implicitFreeSurface =   /* Implicit free surface on/off flag */
(PID.TID 0000.0001)                   T
(PID.TID 0000.0001)     ;
(PID.TID 0000.0001) freeSurfFac =   /* Implicit free surface factor */
(PID.TID 0000.0001)                 1.000000000000000E+00
(PID.TID 0000.0001)     ;
(PID.TID 0000.0001) implicSurfPress =  /* Surface Pressure implicit factor (0-1)*/
(PID.TID 0000.0001)                 1.000000000000000E+00
(PID.TID 0000.0001)     ;
(PID.TID 0000.0001) implicDiv2Dflow =  /* Barot. Flow Div. implicit factor (0-1)*/
(PID.TID 0000.0001)                 1.000000000000000E+00
(PID.TID 0000.0001)     ;
(PID.TID 0000.0001) exactConserv =  /* Exact Volume Conservation on/off flag*/
(PID.TID 0000.0001)                   F
(PID.TID 0000.0001)     ;
(PID.TID 0000.0001) linFSConserveTr = /* Tracer correction for Lin Free Surface on/off flag*/
(PID.TID 0000.0001)                   F
(PID.TID 0000.0001)     ;
(PID.TID 0000.0001) uniformLin_PhiSurf = /* use uniform Bo_surf on/off flag*/
(PID.TID 0000.0001)                   T
(PID.TID 0000.0001)     ;
(PID.TID 0000.0001) hFacMin =   /* minimum partial cell factor (hFac) */
(PID.TID 0000.0001)                 1.000000000000000E+00
(PID.TID 0000.0001)     ;
(PID.TID 0000.0001) hFacMinDr = /* minimum partial cell thickness ( m) */
(PID.TID 0000.0001)                 1.000000000000000E+00
(PID.TID 0000.0001)     ;
(PID.TID 0000.0001) nonlinFreeSurf = /* Non-linear Free Surf. options (-1,0,1,2,3)*/
(PID.TID 0000.0001)                       0
(PID.TID 0000.0001)      -1,0= Off ; 1,2,3= On, 2=+rescale gU,gV, 3=+update cg2d solv.
(PID.TID 0000.0001)     ;
(PID.TID 0000.0001) hFacInf =   /* lower threshold for hFac (nonlinFreeSurf only)*/
(PID.TID 0000.0001)                 2.000000000000000E-01
(PID.TID 0000.0001)     ;
(PID.TID 0000.0001) hFacSup =   /* upper threshold for hFac (nonlinFreeSurf only)*/
(PID.TID 0000.0001)                 2.000000000000000E+00
(PID.TID 0000.0001)     ;
(PID.TID 0000.0001) select_rStar = /* r* Vertical coord. options (=0 r coord.; >0 uses r*)*/
(PID.TID 0000.0001)                       0
(PID.TID 0000.0001)     ;
(PID.TID 0000.0001) selectAddFluid = /* option for mass source/sink of fluid (=0: off) */
(PID.TID 0000.0001)                       0
(PID.TID 0000.0001)     ;
(PID.TID 0000.0001) useRealFreshWaterFlux = /* Real Fresh Water Flux on/off flag*/
(PID.TID 0000.0001)                   F
(PID.TID 0000.0001)     ;
(PID.TID 0000.0001) temp_EvPrRn = /* Temp. of Evap/Prec/R (UNSET=use local T)(oC)*/
(PID.TID 0000.0001)                 1.234567000000000E+05
(PID.TID 0000.0001)     ;
(PID.TID 0000.0001) salt_EvPrRn = /* Salin. of Evap/Prec/R (UNSET=use local S)(psu)*/
(PID.TID 0000.0001)                 0.000000000000000E+00
(PID.TID 0000.0001)     ;
(PID.TID 0000.0001) temp_addMass = /* Temp. of addMass array (UNSET=use local T)(oC)*/
(PID.TID 0000.0001)                 1.234567000000000E+05
(PID.TID 0000.0001)     ;
(PID.TID 0000.0001) salt_addMass = /* Salin. of addMass array (UNSET=use local S)(psu)*/
(PID.TID 0000.0001)                 0.000000000000000E+00
(PID.TID 0000.0001)     ;
(PID.TID 0000.0001) convertFW2Salt = /* convert F.W. Flux to Salt Flux (-1=use local S)(psu)*/
(PID.TID 0000.0001)                 3.500000000000000E+01
(PID.TID 0000.0001)     ;
(PID.TID 0000.0001) use3Dsolver = /* use 3-D pressure solver on/off flag */
(PID.TID 0000.0001)                   F
(PID.TID 0000.0001)     ;
(PID.TID 0000.0001) nonHydrostatic =  /* Non-Hydrostatic on/off flag */
(PID.TID 0000.0001)                   F
(PID.TID 0000.0001)     ;
(PID.TID 0000.0001) nh_Am2 = /* Non-Hydrostatic terms scaling factor */
(PID.TID 0000.0001)                 1.000000000000000E+00
(PID.TID 0000.0001)     ;
(PID.TID 0000.0001) implicitNHPress = /* Non-Hyd Pressure implicit factor (0-1)*/
(PID.TID 0000.0001)                 1.000000000000000E+00
(PID.TID 0000.0001)     ;
(PID.TID 0000.0001) selectNHfreeSurf = /* Non-Hyd (free-)Surface option */
(PID.TID 0000.0001)                       0
(PID.TID 0000.0001)     ;
(PID.TID 0000.0001) quasiHydrostatic = /* Quasi-Hydrostatic on/off flag */
(PID.TID 0000.0001)                   F
(PID.TID 0000.0001)     ;
(PID.TID 0000.0001) momStepping =  /* Momentum equation on/off flag */
(PID.TID 0000.0001)                   T
(PID.TID 0000.0001)     ;
(PID.TID 0000.0001) vectorInvariantMomentum= /* Vector-Invariant Momentum on/off */
(PID.TID 0000.0001)                   F
(PID.TID 0000.0001)     ;
(PID.TID 0000.0001) momAdvection =  /* Momentum advection on/off flag */
(PID.TID 0000.0001)                   T
(PID.TID 0000.0001)     ;
(PID.TID 0000.0001) momViscosity =  /* Momentum viscosity on/off flag */
(PID.TID 0000.0001)                   T
(PID.TID 0000.0001)     ;
(PID.TID 0000.0001) momImplVertAdv= /* Momentum implicit vert. advection on/off*/
(PID.TID 0000.0001)                   F
(PID.TID 0000.0001)     ;
(PID.TID 0000.0001) implicitViscosity = /* Implicit viscosity on/off flag */
(PID.TID 0000.0001)                   T
(PID.TID 0000.0001)     ;
(PID.TID 0000.0001) metricTerms =  /* metric-Terms on/off flag */
(PID.TID 0000.0001)                   T
(PID.TID 0000.0001)     ;
(PID.TID 0000.0001) useNHMTerms = /* Non-Hydrostatic Metric-Terms on/off */
(PID.TID 0000.0001)                   T
(PID.TID 0000.0001)     ;
(PID.TID 0000.0001) selectCoriMap = /* Coriolis Map options (0,1,2,3)*/
(PID.TID 0000.0001)                       2
(PID.TID 0000.0001)     0= f-Plane ; 1= Beta-Plane ; 2= Spherical ; 3= read from file
(PID.TID 0000.0001)     ;
(PID.TID 0000.0001) use3dCoriolis = /* 3-D Coriolis on/off flag */
(PID.TID 0000.0001)                   F
(PID.TID 0000.0001)     ;
(PID.TID 0000.0001) useCoriolis =  /* Coriolis on/off flag */
(PID.TID 0000.0001)                   T
(PID.TID 0000.0001)     ;
(PID.TID 0000.0001) useCDscheme =  /* CD scheme on/off flag */
(PID.TID 0000.0001)                   T
(PID.TID 0000.0001)     ;
(PID.TID 0000.0001) useEnergyConservingCoriolis= /* Flx-Form Coriolis scheme flag */
(PID.TID 0000.0001)                   F
(PID.TID 0000.0001)     ;
(PID.TID 0000.0001) useJamartWetPoints= /* Coriolis WetPoints method flag */
(PID.TID 0000.0001)                   F
(PID.TID 0000.0001)     ;
(PID.TID 0000.0001) useJamartMomAdv= /* V.I Non-linear terms Jamart flag */
(PID.TID 0000.0001)                   F
(PID.TID 0000.0001)     ;
(PID.TID 0000.0001) useAbsVorticity= /* V.I Works with f+zeta in Coriolis */
(PID.TID 0000.0001)                   F
(PID.TID 0000.0001)     ;
(PID.TID 0000.0001) selectVortScheme= /* V.I Scheme selector for Vorticity-Term */
(PID.TID 0000.0001)               123456789
(PID.TID 0000.0001)    = 0 : enstrophy (Shallow-Water Eq.) conserving scheme by Sadourny, JAS 75
(PID.TID 0000.0001)    = 1 : same as 0 with modified hFac
(PID.TID 0000.0001)    = 2 : energy conserving scheme (used by Sadourny in JAS 75 paper)
(PID.TID 0000.0001)    = 3 : energy (general) and enstrophy (2D, nonDiv.) conserving scheme
(PID.TID 0000.0001)          from Sadourny (Burridge & Haseler, ECMWF Rep.4, 1977)
(PID.TID 0000.0001)     ;
(PID.TID 0000.0001) upwindVorticity= /* V.I Upwind bias vorticity flag */
(PID.TID 0000.0001)                   F
(PID.TID 0000.0001)     ;
(PID.TID 0000.0001) highOrderVorticity= /* V.I High order vort. advect. flag */
(PID.TID 0000.0001)                   F
(PID.TID 0000.0001)     ;
(PID.TID 0000.0001) upwindShear= /* V.I Upwind vertical Shear advection flag */
(PID.TID 0000.0001)                   F
(PID.TID 0000.0001)     ;
(PID.TID 0000.0001) selectKEscheme= /* V.I Kinetic Energy scheme selector */
(PID.TID 0000.0001)                       0
(PID.TID 0000.0001)     ;
(PID.TID 0000.0001) momForcing =  /* Momentum forcing on/off flag */
(PID.TID 0000.0001)                   T
(PID.TID 0000.0001)     ;
(PID.TID 0000.0001) momPressureForcing =  /* Momentum pressure term on/off flag */
(PID.TID 0000.0001)                   T
(PID.TID 0000.0001)     ;
(PID.TID 0000.0001) implicitIntGravWave= /* Implicit Internal Gravity Wave flag */
(PID.TID 0000.0001)                   F
(PID.TID 0000.0001)     ;
(PID.TID 0000.0001) staggerTimeStep =   /* Stagger time stepping on/off flag */
(PID.TID 0000.0001)                   F
(PID.TID 0000.0001)     ;
(PID.TID 0000.0001) multiDimAdvection =   /* enable/disable Multi-Dim Advection */
(PID.TID 0000.0001)                   T
(PID.TID 0000.0001)     ;
(PID.TID 0000.0001) useMultiDimAdvec =   /* Multi-Dim Advection is/is-not used */
(PID.TID 0000.0001)                   F
(PID.TID 0000.0001)     ;
(PID.TID 0000.0001) implicitDiffusion = /* Implicit Diffusion on/off flag */
(PID.TID 0000.0001)                   T
(PID.TID 0000.0001)     ;
(PID.TID 0000.0001) tempStepping =  /* Temperature equation on/off flag */
(PID.TID 0000.0001)                   T
(PID.TID 0000.0001)     ;
(PID.TID 0000.0001) tempAdvection=  /* Temperature advection on/off flag */
(PID.TID 0000.0001)                   T
(PID.TID 0000.0001)     ;
(PID.TID 0000.0001) tempImplVertAdv = /* Temp. implicit vert. advection on/off */
(PID.TID 0000.0001)                   F
(PID.TID 0000.0001)     ;
(PID.TID 0000.0001) tempForcing  =  /* Temperature forcing on/off flag */
(PID.TID 0000.0001)                   T
(PID.TID 0000.0001)     ;
(PID.TID 0000.0001) tempIsActiveTr = /* Temp. is a dynamically Active Tracer */
(PID.TID 0000.0001)                   T
(PID.TID 0000.0001)     ;
(PID.TID 0000.0001) saltStepping =  /* Salinity equation on/off flag */
(PID.TID 0000.0001)                   T
(PID.TID 0000.0001)     ;
(PID.TID 0000.0001) saltAdvection=  /* Salinity advection on/off flag */
(PID.TID 0000.0001)                   T
(PID.TID 0000.0001)     ;
(PID.TID 0000.0001) saltImplVertAdv = /* Sali. implicit vert. advection on/off */
(PID.TID 0000.0001)                   F
(PID.TID 0000.0001)     ;
(PID.TID 0000.0001) saltForcing  =  /* Salinity forcing on/off flag */
(PID.TID 0000.0001)                   T
(PID.TID 0000.0001)     ;
(PID.TID 0000.0001) saltIsActiveTr = /* Salt  is a dynamically Active Tracer */
(PID.TID 0000.0001)                   T
(PID.TID 0000.0001)     ;
(PID.TID 0000.0001)  readBinaryPrec = /* Precision used for reading binary files */
(PID.TID 0000.0001)                      32
(PID.TID 0000.0001)     ;
(PID.TID 0000.0001) writeBinaryPrec = /* Precision used for writing binary files */
(PID.TID 0000.0001)                      32
(PID.TID 0000.0001)     ;
(PID.TID 0000.0001)  globalFiles = /* write "global" (=not per tile) files */
(PID.TID 0000.0001)                   F
(PID.TID 0000.0001)     ;
(PID.TID 0000.0001)  useSingleCpuIO = /* only master MPI process does I/O */
(PID.TID 0000.0001)                   F
(PID.TID 0000.0001)     ;
(PID.TID 0000.0001) /* debLev[*]  : level of debug & auxiliary message printing */
(PID.TID 0000.0001) debLevZero =  0 ; /* level of disabled aux. msg printing */
(PID.TID 0000.0001)    debLevA =  1 ; /* level of minimum  aux. msg printing */
(PID.TID 0000.0001)    debLevB =  2 ; /* level of low aux. print (report read-file opening)*/
(PID.TID 0000.0001)    debLevC =  3 ; /* level of moderate debug prt (most pkgs debug msg) */
(PID.TID 0000.0001)    debLevD =  4 ; /* level of enhanced debug prt (add DEBUG_STATS prt) */
(PID.TID 0000.0001)    debLevE =  5 ; /* level of extensive debug printing */
(PID.TID 0000.0001) debugLevel =  /* select debug printing level */
(PID.TID 0000.0001)                       2
(PID.TID 0000.0001)     ;
(PID.TID 0000.0001) //
(PID.TID 0000.0001) // Elliptic solver(s) paramters ( PARM02 in namelist )
(PID.TID 0000.0001) //
(PID.TID 0000.0001) cg2dMaxIters =   /* Upper limit on 2d con. grad iterations  */
(PID.TID 0000.0001)                    1000
(PID.TID 0000.0001)     ;
(PID.TID 0000.0001) cg2dChkResFreq =   /* 2d con. grad convergence test frequency */
(PID.TID 0000.0001)                       1
(PID.TID 0000.0001)     ;
(PID.TID 0000.0001) cg2dTargetResidual =   /* 2d con. grad target residual  */
(PID.TID 0000.0001)                 1.000000000000000E-13
(PID.TID 0000.0001)     ;
(PID.TID 0000.0001) cg2dTargetResWunit =   /* CG2d target residual [W units] */
(PID.TID 0000.0001)                -1.000000000000000E+00
(PID.TID 0000.0001)     ;
(PID.TID 0000.0001) cg2dPreCondFreq =   /* Freq. for updating cg2d preconditioner */
(PID.TID 0000.0001)                       1
(PID.TID 0000.0001)     ;
(PID.TID 0000.0001) useSRCGSolver =  /* use single reduction CG solver(s) */
(PID.TID 0000.0001)                   F
(PID.TID 0000.0001)     ;
(PID.TID 0000.0001) printResidualFreq = /* Freq. for printing CG residual */
(PID.TID 0000.0001)                       0
(PID.TID 0000.0001)     ;
(PID.TID 0000.0001) //
(PID.TID 0000.0001) // Time stepping paramters ( PARM03 in namelist )
(PID.TID 0000.0001) //
(PID.TID 0000.0001) deltaTmom =   /* Momentum equation timestep ( s ) */
(PID.TID 0000.0001)                 3.600000000000000E+03
(PID.TID 0000.0001)     ;
(PID.TID 0000.0001) deltaTfreesurf = /* FreeSurface equation timestep ( s ) */
(PID.TID 0000.0001)                 3.600000000000000E+03
(PID.TID 0000.0001)     ;
(PID.TID 0000.0001) dTtracerLev =  /* Tracer equation timestep ( s ) */
(PID.TID 0000.0001)    23 @  3.600000000000000E+03              /* K =  1: 23 */
(PID.TID 0000.0001)     ;
(PID.TID 0000.0001) deltaTClock  =   /* Model clock timestep ( s ) */
(PID.TID 0000.0001)                 3.600000000000000E+03
(PID.TID 0000.0001)     ;
(PID.TID 0000.0001) cAdjFreq =   /* Convective adjustment interval ( s ) */
(PID.TID 0000.0001)                 0.000000000000000E+00
(PID.TID 0000.0001)     ;
(PID.TID 0000.0001) momForcingOutAB = /* =1: take Momentum Forcing out of Adams-Bash. stepping */
(PID.TID 0000.0001)                       0
(PID.TID 0000.0001)     ;
(PID.TID 0000.0001) tracForcingOutAB = /* =1: take T,S,pTr Forcing out of Adams-Bash. stepping */
(PID.TID 0000.0001)                       0
(PID.TID 0000.0001)     ;
(PID.TID 0000.0001) momDissip_In_AB = /* put Dissipation Tendency in Adams-Bash. stepping */
(PID.TID 0000.0001)                   T
(PID.TID 0000.0001)     ;
(PID.TID 0000.0001) doAB_onGtGs = /* apply AB on Tendencies (rather than on T,S)*/
(PID.TID 0000.0001)                   T
(PID.TID 0000.0001)     ;
(PID.TID 0000.0001) abEps =   /* Adams-Bashforth-2 stabilizing weight */
(PID.TID 0000.0001)                 1.000000000000000E-01
(PID.TID 0000.0001)     ;
(PID.TID 0000.0001) tauCD =   /* CD coupling time-scale ( s ) */
(PID.TID 0000.0001)                 1.728000000000000E+05
(PID.TID 0000.0001)     ;
(PID.TID 0000.0001) rCD =   /* Normalised CD coupling parameter */
(PID.TID 0000.0001)                 9.791666666666666E-01
(PID.TID 0000.0001)     ;
(PID.TID 0000.0001) epsAB_CD = /* AB-2 stabilizing weight for CD-scheme*/
(PID.TID 0000.0001)                 1.000000000000000E-01
(PID.TID 0000.0001)     ;
(PID.TID 0000.0001) pickupStrictlyMatch= /* stop if pickup do not strictly match */
(PID.TID 0000.0001)                   T
(PID.TID 0000.0001)     ;
(PID.TID 0000.0001) nIter0   =   /* Run starting timestep number */
(PID.TID 0000.0001)                       0
(PID.TID 0000.0001)     ;
(PID.TID 0000.0001) nTimeSteps = /* Number of timesteps */
(PID.TID 0000.0001)                      20
(PID.TID 0000.0001)     ;
(PID.TID 0000.0001) nEndIter =   /* Run ending timestep number */
(PID.TID 0000.0001)                      20
(PID.TID 0000.0001)     ;
(PID.TID 0000.0001) baseTime =   /* Model base time ( s ) */
(PID.TID 0000.0001)                 2.160000000000000E+04
(PID.TID 0000.0001)     ;
(PID.TID 0000.0001) startTime =  /* Run start time ( s ) */
(PID.TID 0000.0001)                 2.160000000000000E+04
(PID.TID 0000.0001)     ;
(PID.TID 0000.0001) endTime  =   /* Integration ending time ( s ) */
(PID.TID 0000.0001)                 9.360000000000000E+04
(PID.TID 0000.0001)     ;
(PID.TID 0000.0001) pChkPtFreq = /* Permanent restart/pickup file interval ( s ) */
(PID.TID 0000.0001)                 0.000000000000000E+00
(PID.TID 0000.0001)     ;
(PID.TID 0000.0001) chkPtFreq  = /* Rolling restart/pickup file interval ( s ) */
(PID.TID 0000.0001)                 0.000000000000000E+00
(PID.TID 0000.0001)     ;
(PID.TID 0000.0001) pickup_write_mdsio =   /* Model IO flag. */
(PID.TID 0000.0001)                   T
(PID.TID 0000.0001)     ;
(PID.TID 0000.0001) pickup_read_mdsio =   /* Model IO flag. */
(PID.TID 0000.0001)                   T
(PID.TID 0000.0001)     ;
(PID.TID 0000.0001) pickup_write_immed =   /* Model IO flag. */
(PID.TID 0000.0001)                   F
(PID.TID 0000.0001)     ;
(PID.TID 0000.0001) writePickupAtEnd =   /* Model IO flag. */
(PID.TID 0000.0001)                   T
(PID.TID 0000.0001)     ;
(PID.TID 0000.0001) dumpFreq =   /* Model state write out interval ( s ). */
(PID.TID 0000.0001)                 8.640000000000000E+04
(PID.TID 0000.0001)     ;
(PID.TID 0000.0001) dumpInitAndLast= /* write out Initial & Last iter. model state */
(PID.TID 0000.0001)                   T
(PID.TID 0000.0001)     ;
(PID.TID 0000.0001) snapshot_mdsio =   /* Model IO flag. */
(PID.TID 0000.0001)                   T
(PID.TID 0000.0001)     ;
(PID.TID 0000.0001) monitorFreq =   /* Monitor output interval ( s ). */
(PID.TID 0000.0001)                 1.000000000000000E+00
(PID.TID 0000.0001)     ;
(PID.TID 0000.0001) monitorSelect = /* select group of variables to monitor */
(PID.TID 0000.0001)                       3
(PID.TID 0000.0001)     ;
(PID.TID 0000.0001) monitor_stdio =   /* Model IO flag. */
(PID.TID 0000.0001)                   T
(PID.TID 0000.0001)     ;
(PID.TID 0000.0001) externForcingPeriod =   /* forcing period (s) */
(PID.TID 0000.0001)                 4.320000000000000E+04
(PID.TID 0000.0001)     ;
(PID.TID 0000.0001) externForcingCycle =   /* period of the cyle (s). */
(PID.TID 0000.0001)                 2.764800000000000E+06
(PID.TID 0000.0001)     ;
(PID.TID 0000.0001) tauThetaClimRelax =   /* relaxation time scale (s) */
(PID.TID 0000.0001)                 2.592000000000000E+06
(PID.TID 0000.0001)     ;
(PID.TID 0000.0001) tauSaltClimRelax =   /* relaxation time scale (s) */
(PID.TID 0000.0001)                 2.592000000000000E+06
(PID.TID 0000.0001)     ;
(PID.TID 0000.0001) latBandClimRelax =   /* max. Lat. where relaxation */
(PID.TID 0000.0001)                 1.800000000000000E+02
(PID.TID 0000.0001)     ;
(PID.TID 0000.0001) //
(PID.TID 0000.0001) // Gridding paramters ( PARM04 in namelist )
(PID.TID 0000.0001) //
(PID.TID 0000.0001) usingCartesianGrid = /* Cartesian coordinates flag ( True/False ) */
(PID.TID 0000.0001)                   F
(PID.TID 0000.0001)     ;
(PID.TID 0000.0001) usingCylindricalGrid = /* Cylindrical coordinates flag ( True/False ) */
(PID.TID 0000.0001)                   F
(PID.TID 0000.0001)     ;
(PID.TID 0000.0001) usingSphericalPolarGrid = /* Spherical coordinates flag ( True/False ) */
(PID.TID 0000.0001)                   T
(PID.TID 0000.0001)     ;
(PID.TID 0000.0001) usingCurvilinearGrid = /* Curvilinear coordinates flag ( True/False ) */
(PID.TID 0000.0001)                   F
(PID.TID 0000.0001)     ;
(PID.TID 0000.0001) selectSigmaCoord = /* Hybrid-Sigma Vert. Coordinate option */
(PID.TID 0000.0001)                       0
(PID.TID 0000.0001)     ;
(PID.TID 0000.0001) Ro_SeaLevel = /* r(1) ( units of r ==  m ) */
(PID.TID 0000.0001)                 0.000000000000000E+00
(PID.TID 0000.0001)     ;
(PID.TID 0000.0001) rSigmaBnd = /* r/sigma transition ( units of r ==  m ) */
(PID.TID 0000.0001)                 1.234567000000000E+05
(PID.TID 0000.0001)     ;
(PID.TID 0000.0001) rkSign =   /* index orientation relative to vertical coordinate */
(PID.TID 0000.0001)                -1.000000000000000E+00
(PID.TID 0000.0001)     ;
(PID.TID 0000.0001) gravitySign = /* gravity orientation relative to vertical coordinate */
(PID.TID 0000.0001)                -1.000000000000000E+00
(PID.TID 0000.0001)     ;
(PID.TID 0000.0001) mass2rUnit = /* convert mass per unit area [kg/m2] to r-units [m] */
(PID.TID 0000.0001)                 1.000200040008002E-03
(PID.TID 0000.0001)     ;
(PID.TID 0000.0001) rUnit2mass = /* convert r-units [m] to mass per unit area [kg/m2] */
(PID.TID 0000.0001)                 9.998000000000000E+02
(PID.TID 0000.0001)     ;
(PID.TID 0000.0001) drC =   /* C spacing ( units of r ) */
(PID.TID 0000.0001)                 5.000000000000000E+00,      /* K =  1 */
(PID.TID 0000.0001)                 1.000000000000000E+01,      /* K =  2 */
(PID.TID 0000.0001)                 1.250000000000000E+01,      /* K =  3 */
(PID.TID 0000.0001)                 1.750000000000000E+01,      /* K =  4 */
(PID.TID 0000.0001)                 2.000000000000000E+01,      /* K =  5 */
(PID.TID 0000.0001)                 2.250000000000000E+01,      /* K =  6 */
(PID.TID 0000.0001)                 3.000000000000000E+01,      /* K =  7 */
(PID.TID 0000.0001)                 4.250000000000000E+01,      /* K =  8 */
(PID.TID 0000.0001)                 6.250000000000000E+01,      /* K =  9 */
(PID.TID 0000.0001)                 8.750000000000000E+01,      /* K = 10 */
(PID.TID 0000.0001)                 1.250000000000000E+02,      /* K = 11 */
(PID.TID 0000.0001)                 1.750000000000000E+02,      /* K = 12 */
(PID.TID 0000.0001)                 2.375000000000000E+02,      /* K = 13 */
(PID.TID 0000.0001)                 3.125000000000000E+02,      /* K = 14 */
(PID.TID 0000.0001)                 3.825000000000000E+02,      /* K = 15 */
(PID.TID 0000.0001)                 4.325000000000000E+02,      /* K = 16 */
(PID.TID 0000.0001)                 4.750000000000000E+02,      /* K = 17 */
(PID.TID 0000.0001)     6 @  5.000000000000000E+02              /* K = 18: 23 */
(PID.TID 0000.0001)     ;
(PID.TID 0000.0001) drF =   /* W spacing ( units of r ) */
(PID.TID 0000.0001)     2 @  1.000000000000000E+01,             /* K =  1:  2 */
(PID.TID 0000.0001)                 1.500000000000000E+01,      /* K =  3 */
(PID.TID 0000.0001)     2 @  2.000000000000000E+01,             /* K =  4:  5 */
(PID.TID 0000.0001)                 2.500000000000000E+01,      /* K =  6 */
(PID.TID 0000.0001)                 3.500000000000000E+01,      /* K =  7 */
(PID.TID 0000.0001)                 5.000000000000000E+01,      /* K =  8 */
(PID.TID 0000.0001)                 7.500000000000000E+01,      /* K =  9 */
(PID.TID 0000.0001)                 1.000000000000000E+02,      /* K = 10 */
(PID.TID 0000.0001)                 1.500000000000000E+02,      /* K = 11 */
(PID.TID 0000.0001)                 2.000000000000000E+02,      /* K = 12 */
(PID.TID 0000.0001)                 2.750000000000000E+02,      /* K = 13 */
(PID.TID 0000.0001)                 3.500000000000000E+02,      /* K = 14 */
(PID.TID 0000.0001)                 4.150000000000000E+02,      /* K = 15 */
(PID.TID 0000.0001)                 4.500000000000000E+02,      /* K = 16 */
(PID.TID 0000.0001)     7 @  5.000000000000000E+02              /* K = 17: 23 */
(PID.TID 0000.0001)     ;
(PID.TID 0000.0001) delX = /* U spacing ( m - cartesian, degrees - spherical ) */
(PID.TID 0000.0001)    20 @  2.000000000000000E+00              /* I =  1: 20 */
(PID.TID 0000.0001)     ;
(PID.TID 0000.0001) delY = /* V spacing ( m - cartesian, degrees - spherical ) */
(PID.TID 0000.0001)    16 @  2.000000000000000E+00              /* J =  1: 16 */
(PID.TID 0000.0001)     ;
(PID.TID 0000.0001) xgOrigin = /* X-axis origin of West  edge (cartesian: m, lat-lon: deg.) */
(PID.TID 0000.0001)                -4.200000000000000E+01
(PID.TID 0000.0001)     ;
(PID.TID 0000.0001) ygOrigin = /* Y-axis origin of South edge (cartesian: m, lat-lon: deg.) */
(PID.TID 0000.0001)                 1.000000000000000E+01
(PID.TID 0000.0001)     ;
(PID.TID 0000.0001) rSphere =  /* Radius ( ignored - cartesian, m - spherical ) */
(PID.TID 0000.0001)                 6.370000000000000E+06
(PID.TID 0000.0001)     ;
(PID.TID 0000.0001) deepAtmosphere = /* Deep/Shallow Atmosphere flag (True/False) */
(PID.TID 0000.0001)                   F
(PID.TID 0000.0001)     ;
(PID.TID 0000.0001) xC =  /* xC(:,1,:,1) : P-point X coord ( deg. or m if cartesian) */
(PID.TID 0000.0001)                -4.100000000000000E+01,      /* I =  1 */
(PID.TID 0000.0001)                -3.900000000000000E+01,      /* I =  2 */
(PID.TID 0000.0001)                -3.700000000000000E+01,      /* I =  3 */
(PID.TID 0000.0001)                -3.500000000000000E+01,      /* I =  4 */
(PID.TID 0000.0001)                -3.300000000000000E+01,      /* I =  5 */
(PID.TID 0000.0001)                -3.100000000000000E+01,      /* I =  6 */
(PID.TID 0000.0001)                -2.900000000000000E+01,      /* I =  7 */
(PID.TID 0000.0001)                -2.700000000000000E+01,      /* I =  8 */
(PID.TID 0000.0001)                -2.500000000000000E+01,      /* I =  9 */
(PID.TID 0000.0001)                -2.300000000000000E+01,      /* I = 10 */
(PID.TID 0000.0001)                -2.100000000000000E+01,      /* I = 11 */
(PID.TID 0000.0001)                -1.900000000000000E+01,      /* I = 12 */
(PID.TID 0000.0001)                -1.700000000000000E+01,      /* I = 13 */
(PID.TID 0000.0001)                -1.500000000000000E+01,      /* I = 14 */
(PID.TID 0000.0001)                -1.300000000000000E+01,      /* I = 15 */
(PID.TID 0000.0001)                -1.100000000000000E+01,      /* I = 16 */
(PID.TID 0000.0001)                -9.000000000000000E+00,      /* I = 17 */
(PID.TID 0000.0001)                -7.000000000000000E+00,      /* I = 18 */
(PID.TID 0000.0001)                -5.000000000000000E+00,      /* I = 19 */
(PID.TID 0000.0001)                -3.000000000000000E+00       /* I = 20 */
(PID.TID 0000.0001)     ;
(PID.TID 0000.0001) yC =  /* yC(1,:,1,:) : P-point Y coord ( deg. or m if cartesian) */
(PID.TID 0000.0001)                 1.100000000000000E+01,      /* J =  1 */
(PID.TID 0000.0001)                 1.300000000000000E+01,      /* J =  2 */
(PID.TID 0000.0001)                 1.500000000000000E+01,      /* J =  3 */
(PID.TID 0000.0001)                 1.700000000000000E+01,      /* J =  4 */
(PID.TID 0000.0001)                 1.900000000000000E+01,      /* J =  5 */
(PID.TID 0000.0001)                 2.100000000000000E+01,      /* J =  6 */
(PID.TID 0000.0001)                 2.300000000000000E+01,      /* J =  7 */
(PID.TID 0000.0001)                 2.500000000000000E+01,      /* J =  8 */
(PID.TID 0000.0001)                 2.700000000000000E+01,      /* J =  9 */
(PID.TID 0000.0001)                 2.900000000000000E+01,      /* J = 10 */
(PID.TID 0000.0001)                 3.100000000000000E+01,      /* J = 11 */
(PID.TID 0000.0001)                 3.300000000000000E+01,      /* J = 12 */
(PID.TID 0000.0001)                 3.500000000000000E+01,      /* J = 13 */
(PID.TID 0000.0001)                 3.700000000000000E+01,      /* J = 14 */
(PID.TID 0000.0001)                 3.900000000000000E+01,      /* J = 15 */
(PID.TID 0000.0001)                 4.100000000000000E+01       /* J = 16 */
(PID.TID 0000.0001)     ;
(PID.TID 0000.0001) rcoord = /* P-point R coordinate (  units of r ) */
(PID.TID 0000.0001)                -5.000000000000000E+00,      /* K =  1 */
(PID.TID 0000.0001)                -1.500000000000000E+01,      /* K =  2 */
(PID.TID 0000.0001)                -2.750000000000000E+01,      /* K =  3 */
(PID.TID 0000.0001)                -4.500000000000000E+01,      /* K =  4 */
(PID.TID 0000.0001)                -6.500000000000000E+01,      /* K =  5 */
(PID.TID 0000.0001)                -8.750000000000000E+01,      /* K =  6 */
(PID.TID 0000.0001)                -1.175000000000000E+02,      /* K =  7 */
(PID.TID 0000.0001)                -1.600000000000000E+02,      /* K =  8 */
(PID.TID 0000.0001)                -2.225000000000000E+02,      /* K =  9 */
(PID.TID 0000.0001)                -3.100000000000000E+02,      /* K = 10 */
(PID.TID 0000.0001)                -4.350000000000000E+02,      /* K = 11 */
(PID.TID 0000.0001)                -6.100000000000000E+02,      /* K = 12 */
(PID.TID 0000.0001)                -8.475000000000000E+02,      /* K = 13 */
(PID.TID 0000.0001)                -1.160000000000000E+03,      /* K = 14 */
(PID.TID 0000.0001)                -1.542500000000000E+03,      /* K = 15 */
(PID.TID 0000.0001)                -1.975000000000000E+03,      /* K = 16 */
(PID.TID 0000.0001)                -2.450000000000000E+03,      /* K = 17 */
(PID.TID 0000.0001)                -2.950000000000000E+03,      /* K = 18 */
(PID.TID 0000.0001)                -3.450000000000000E+03,      /* K = 19 */
(PID.TID 0000.0001)                -3.950000000000000E+03,      /* K = 20 */
(PID.TID 0000.0001)                -4.450000000000000E+03,      /* K = 21 */
(PID.TID 0000.0001)                -4.950000000000000E+03,      /* K = 22 */
(PID.TID 0000.0001)                -5.450000000000000E+03       /* K = 23 */
(PID.TID 0000.0001)     ;
(PID.TID 0000.0001) rF =   /* W-Interf. R coordinate (  units of r ) */
(PID.TID 0000.0001)                 0.000000000000000E+00,      /* K =  1 */
(PID.TID 0000.0001)                -1.000000000000000E+01,      /* K =  2 */
(PID.TID 0000.0001)                -2.000000000000000E+01,      /* K =  3 */
(PID.TID 0000.0001)                -3.500000000000000E+01,      /* K =  4 */
(PID.TID 0000.0001)                -5.500000000000000E+01,      /* K =  5 */
(PID.TID 0000.0001)                -7.500000000000000E+01,      /* K =  6 */
(PID.TID 0000.0001)                -1.000000000000000E+02,      /* K =  7 */
(PID.TID 0000.0001)                -1.350000000000000E+02,      /* K =  8 */
(PID.TID 0000.0001)                -1.850000000000000E+02,      /* K =  9 */
(PID.TID 0000.0001)                -2.600000000000000E+02,      /* K = 10 */
(PID.TID 0000.0001)                -3.600000000000000E+02,      /* K = 11 */
(PID.TID 0000.0001)                -5.100000000000000E+02,      /* K = 12 */
(PID.TID 0000.0001)                -7.100000000000000E+02,      /* K = 13 */
(PID.TID 0000.0001)                -9.850000000000000E+02,      /* K = 14 */
(PID.TID 0000.0001)                -1.335000000000000E+03,      /* K = 15 */
(PID.TID 0000.0001)                -1.750000000000000E+03,      /* K = 16 */
(PID.TID 0000.0001)                -2.200000000000000E+03,      /* K = 17 */
(PID.TID 0000.0001)                -2.700000000000000E+03,      /* K = 18 */
(PID.TID 0000.0001)                -3.200000000000000E+03,      /* K = 19 */
(PID.TID 0000.0001)                -3.700000000000000E+03,      /* K = 20 */
(PID.TID 0000.0001)                -4.200000000000000E+03,      /* K = 21 */
(PID.TID 0000.0001)                -4.700000000000000E+03,      /* K = 22 */
(PID.TID 0000.0001)                -5.200000000000000E+03,      /* K = 23 */
(PID.TID 0000.0001)                -5.700000000000000E+03       /* K = 24 */
(PID.TID 0000.0001)     ;
(PID.TID 0000.0001) deepFacC = /* deep-model grid factor @ cell-Center (-) */
(PID.TID 0000.0001)    23 @  1.000000000000000E+00              /* K =  1: 23 */
(PID.TID 0000.0001)     ;
(PID.TID 0000.0001) deepFacF = /* deep-model grid factor @ W-Interface (-) */
(PID.TID 0000.0001)    24 @  1.000000000000000E+00              /* K =  1: 24 */
(PID.TID 0000.0001)     ;
(PID.TID 0000.0001) rVel2wUnit = /* convert units: rVel -> wSpeed (=1 if z-coord)*/
(PID.TID 0000.0001)    24 @  1.000000000000000E+00              /* K =  1: 24 */
(PID.TID 0000.0001)     ;
(PID.TID 0000.0001) wUnit2rVel = /* convert units: wSpeed -> rVel (=1 if z-coord)*/
(PID.TID 0000.0001)    24 @  1.000000000000000E+00              /* K =  1: 24 */
(PID.TID 0000.0001)     ;
(PID.TID 0000.0001) dBdrRef = /* Vertical grad. of reference buoyancy [(m/s/r)^2] */
(PID.TID 0000.0001)    23 @  0.000000000000000E+00              /* K =  1: 23 */
(PID.TID 0000.0001)     ;
(PID.TID 0000.0001) rotateGrid = /* use rotated grid ( True/False ) */
(PID.TID 0000.0001)                   F
(PID.TID 0000.0001)     ;
(PID.TID 0000.0001) phiEuler = /* Euler angle, rotation about original z-coordinate [rad] */
(PID.TID 0000.0001)                 0.000000000000000E+00
(PID.TID 0000.0001)     ;
(PID.TID 0000.0001) thetaEuler = /* Euler angle, rotation about new x-coordinate [rad] */
(PID.TID 0000.0001)                 0.000000000000000E+00
(PID.TID 0000.0001)     ;
(PID.TID 0000.0001) psiEuler = /* Euler angle, rotation about new z-coordinate [rad] */
(PID.TID 0000.0001)                 0.000000000000000E+00
(PID.TID 0000.0001)     ;
(PID.TID 0000.0001) dxF =  /* dxF(:,1,:,1) ( units: m ) */
(PID.TID 0000.0001)    20 @  2.182696600587791E+05              /* I =  1: 20 */
(PID.TID 0000.0001)     ;
(PID.TID 0000.0001) dxF =  /* dxF(1,:,1,:) ( units: m ) */
(PID.TID 0000.0001)                 2.182696600587791E+05,      /* J =  1 */
(PID.TID 0000.0001)                 2.166560038253696E+05,      /* J =  2 */
(PID.TID 0000.0001)                 2.147783856245979E+05,      /* J =  3 */
(PID.TID 0000.0001)                 2.126390930450167E+05,      /* J =  4 */
(PID.TID 0000.0001)                 2.102407324851014E+05,      /* J =  5 */
(PID.TID 0000.0001)                 2.075862259777553E+05,      /* J =  6 */
(PID.TID 0000.0001)                 2.046788076302621E+05,      /* J =  7 */
(PID.TID 0000.0001)                 2.015220196840248E+05,      /* J =  8 */
(PID.TID 0000.0001)                 1.981197081988899E+05,      /* J =  9 */
(PID.TID 0000.0001)                 1.944760183673163E+05,      /* J = 10 */
(PID.TID 0000.0001)                 1.905953894640962E+05,      /* J = 11 */
(PID.TID 0000.0001)                 1.864825494377832E+05,      /* J = 12 */
(PID.TID 0000.0001)                 1.821425091504150E+05,      /* J = 13 */
(PID.TID 0000.0001)                 1.775805562725496E+05,      /* J = 14 */
(PID.TID 0000.0001)                 1.728022488410539E+05,      /* J = 15 */
(PID.TID 0000.0001)                 1.678134084874913E+05       /* J = 16 */
(PID.TID 0000.0001)     ;
(PID.TID 0000.0001) dyF =  /* dyF(:,1,:,1) ( units: m ) */
(PID.TID 0000.0001)    20 @  2.223549467040776E+05              /* I =  1: 20 */
(PID.TID 0000.0001)     ;
(PID.TID 0000.0001) dyF =  /* dyF(1,:,1,:) ( units: m ) */
(PID.TID 0000.0001)    16 @  2.223549467040776E+05              /* J =  1: 16 */
(PID.TID 0000.0001)     ;
(PID.TID 0000.0001) dxG =  /* dxG(:,1,:,1) ( units: m ) */
(PID.TID 0000.0001)    20 @  2.189768754347919E+05              /* I =  1: 20 */
(PID.TID 0000.0001)     ;
(PID.TID 0000.0001) dxG =  /* dxG(1,:,1,:) ( units: m ) */
(PID.TID 0000.0001)                 2.189768754347919E+05,      /* J =  1 */
(PID.TID 0000.0001)                 2.174959576298867E+05,      /* J =  2 */
(PID.TID 0000.0001)                 2.157500545032935E+05,      /* J =  3 */
(PID.TID 0000.0001)                 2.137412931690361E+05,      /* J =  4 */
(PID.TID 0000.0001)                 2.114721209933746E+05,      /* J =  5 */
(PID.TID 0000.0001)                 2.089453026130656E+05,      /* J =  6 */
(PID.TID 0000.0001)                 2.061639165670793E+05,      /* J =  7 */
(PID.TID 0000.0001)                 2.031313515458727E+05,      /* J =  8 */
(PID.TID 0000.0001)                 1.998513022627935E+05,      /* J =  9 */
(PID.TID 0000.0001)                 1.963277649526403E+05,      /* J = 10 */
(PID.TID 0000.0001)                 1.925650325028661E+05,      /* J = 11 */
(PID.TID 0000.0001)                 1.885676892233566E+05,      /* J = 12 */
(PID.TID 0000.0001)                 1.843406052611541E+05,      /* J = 13 */
(PID.TID 0000.0001)                 1.798889306669345E+05,      /* J = 14 */
(PID.TID 0000.0001)                 1.752180891204627E+05,      /* J = 15 */
(PID.TID 0000.0001)                 1.703337713226751E+05       /* J = 16 */
(PID.TID 0000.0001)     ;
(PID.TID 0000.0001) dyG =  /* dyG(:,1,:,1) ( units: m ) */
(PID.TID 0000.0001)    20 @  2.223549467040776E+05              /* I =  1: 20 */
(PID.TID 0000.0001)     ;
(PID.TID 0000.0001) dyG =  /* dyG(1,:,1,:) ( units: m ) */
(PID.TID 0000.0001)    16 @  2.223549467040776E+05              /* J =  1: 16 */
(PID.TID 0000.0001)     ;
(PID.TID 0000.0001) dxC =  /* dxC(:,1,:,1) ( units: m ) */
(PID.TID 0000.0001)    20 @  2.182696600587791E+05              /* I =  1: 20 */
(PID.TID 0000.0001)     ;
(PID.TID 0000.0001) dxC =  /* dxC(1,:,1,:) ( units: m ) */
(PID.TID 0000.0001)                 2.182696600587791E+05,      /* J =  1 */
(PID.TID 0000.0001)                 2.166560038253696E+05,      /* J =  2 */
(PID.TID 0000.0001)                 2.147783856245979E+05,      /* J =  3 */
(PID.TID 0000.0001)                 2.126390930450167E+05,      /* J =  4 */
(PID.TID 0000.0001)                 2.102407324851014E+05,      /* J =  5 */
(PID.TID 0000.0001)                 2.075862259777553E+05,      /* J =  6 */
(PID.TID 0000.0001)                 2.046788076302621E+05,      /* J =  7 */
(PID.TID 0000.0001)                 2.015220196840248E+05,      /* J =  8 */
(PID.TID 0000.0001)                 1.981197081988899E+05,      /* J =  9 */
(PID.TID 0000.0001)                 1.944760183673163E+05,      /* J = 10 */
(PID.TID 0000.0001)                 1.905953894640962E+05,      /* J = 11 */
(PID.TID 0000.0001)                 1.864825494377832E+05,      /* J = 12 */
(PID.TID 0000.0001)                 1.821425091504150E+05,      /* J = 13 */
(PID.TID 0000.0001)                 1.775805562725496E+05,      /* J = 14 */
(PID.TID 0000.0001)                 1.728022488410539E+05,      /* J = 15 */
(PID.TID 0000.0001)                 1.678134084874913E+05       /* J = 16 */
(PID.TID 0000.0001)     ;
(PID.TID 0000.0001) dyC =  /* dyC(:,1,:,1) ( units: m ) */
(PID.TID 0000.0001)    20 @  2.223549467040776E+05              /* I =  1: 20 */
(PID.TID 0000.0001)     ;
(PID.TID 0000.0001) dyC =  /* dyC(1,:,1,:) ( units: m ) */
(PID.TID 0000.0001)    16 @  2.223549467040776E+05              /* J =  1: 16 */
(PID.TID 0000.0001)     ;
(PID.TID 0000.0001) dxV =  /* dxV(:,1,:,1) ( units: m ) */
(PID.TID 0000.0001)    20 @  2.189768754347919E+05              /* I =  1: 20 */
(PID.TID 0000.0001)     ;
(PID.TID 0000.0001) dxV =  /* dxV(1,:,1,:) ( units: m ) */
(PID.TID 0000.0001)                 2.189768754347919E+05,      /* J =  1 */
(PID.TID 0000.0001)                 2.174959576298867E+05,      /* J =  2 */
(PID.TID 0000.0001)                 2.157500545032935E+05,      /* J =  3 */
(PID.TID 0000.0001)                 2.137412931690361E+05,      /* J =  4 */
(PID.TID 0000.0001)                 2.114721209933746E+05,      /* J =  5 */
(PID.TID 0000.0001)                 2.089453026130656E+05,      /* J =  6 */
(PID.TID 0000.0001)                 2.061639165670793E+05,      /* J =  7 */
(PID.TID 0000.0001)                 2.031313515458727E+05,      /* J =  8 */
(PID.TID 0000.0001)                 1.998513022627935E+05,      /* J =  9 */
(PID.TID 0000.0001)                 1.963277649526403E+05,      /* J = 10 */
(PID.TID 0000.0001)                 1.925650325028661E+05,      /* J = 11 */
(PID.TID 0000.0001)                 1.885676892233566E+05,      /* J = 12 */
(PID.TID 0000.0001)                 1.843406052611541E+05,      /* J = 13 */
(PID.TID 0000.0001)                 1.798889306669345E+05,      /* J = 14 */
(PID.TID 0000.0001)                 1.752180891204627E+05,      /* J = 15 */
(PID.TID 0000.0001)                 1.703337713226751E+05       /* J = 16 */
(PID.TID 0000.0001)     ;
(PID.TID 0000.0001) dyU =  /* dyU(:,1,:,1) ( units: m ) */
(PID.TID 0000.0001)    20 @  2.223549467040776E+05              /* I =  1: 20 */
(PID.TID 0000.0001)     ;
(PID.TID 0000.0001) dyU =  /* dyU(1,:,1,:) ( units: m ) */
(PID.TID 0000.0001)    16 @  2.223549467040776E+05              /* J =  1: 16 */
(PID.TID 0000.0001)     ;
(PID.TID 0000.0001) rA  =  /* rA (:,1,:,1) ( units: m^2 ) */
(PID.TID 0000.0001)    20 @  4.853087465028468E+10              /* I =  1: 20 */
(PID.TID 0000.0001)     ;
(PID.TID 0000.0001) rA  =  /* rA (1,:,1,:) ( units: m^2 ) */
(PID.TID 0000.0001)                 4.853087465028468E+10,      /* J =  1 */
(PID.TID 0000.0001)                 4.817208842057614E+10,      /* J =  2 */
(PID.TID 0000.0001)                 4.775461192146850E+10,      /* J =  3 */
(PID.TID 0000.0001)                 4.727895378376868E+10,      /* J =  4 */
(PID.TID 0000.0001)                 4.674569352364785E+10,      /* J =  5 */
(PID.TID 0000.0001)                 4.615548083659052E+10,      /* J =  6 */
(PID.TID 0000.0001)                 4.550903480584064E+10,      /* J =  7 */
(PID.TID 0000.0001)                 4.480714302630917E+10,      /* J =  8 */
(PID.TID 0000.0001)                 4.405066064501157E+10,      /* J =  9 */
(PID.TID 0000.0001)                 4.324050931920184E+10,      /* J = 10 */
(PID.TID 0000.0001)                 4.237767609347683E+10,      /* J = 11 */
(PID.TID 0000.0001)                 4.146321219721255E+10,      /* J = 12 */
(PID.TID 0000.0001)                 4.049823176380374E+10,      /* J = 13 */
(PID.TID 0000.0001)                 3.948391047326549E+10,      /* J = 14 */
(PID.TID 0000.0001)                 3.842148411984549E+10,      /* J = 15 */
(PID.TID 0000.0001)                 3.731224710640178E+10       /* J = 16 */
(PID.TID 0000.0001)     ;
(PID.TID 0000.0001) rAw =  /* rAw(:,1,:,1) ( units: m^2 ) */
(PID.TID 0000.0001)    20 @  4.853087465028468E+10              /* I =  1: 20 */
(PID.TID 0000.0001)     ;
(PID.TID 0000.0001) rAw =  /* rAw(1,:,1,:) ( units: m^2 ) */
(PID.TID 0000.0001)                 4.853087465028468E+10,      /* J =  1 */
(PID.TID 0000.0001)                 4.817208842057614E+10,      /* J =  2 */
(PID.TID 0000.0001)                 4.775461192146850E+10,      /* J =  3 */
(PID.TID 0000.0001)                 4.727895378376868E+10,      /* J =  4 */
(PID.TID 0000.0001)                 4.674569352364785E+10,      /* J =  5 */
(PID.TID 0000.0001)                 4.615548083659052E+10,      /* J =  6 */
(PID.TID 0000.0001)                 4.550903480584064E+10,      /* J =  7 */
(PID.TID 0000.0001)                 4.480714302630917E+10,      /* J =  8 */
(PID.TID 0000.0001)                 4.405066064501157E+10,      /* J =  9 */
(PID.TID 0000.0001)                 4.324050931920184E+10,      /* J = 10 */
(PID.TID 0000.0001)                 4.237767609347683E+10,      /* J = 11 */
(PID.TID 0000.0001)                 4.146321219721255E+10,      /* J = 12 */
(PID.TID 0000.0001)                 4.049823176380374E+10,      /* J = 13 */
(PID.TID 0000.0001)                 3.948391047326549E+10,      /* J = 14 */
(PID.TID 0000.0001)                 3.842148411984549E+10,      /* J = 15 */
(PID.TID 0000.0001)                 3.731224710640178E+10       /* J = 16 */
(PID.TID 0000.0001)     ;
(PID.TID 0000.0001) rAs =  /* rAs(:,1,:,1) ( units: m^2 ) */
(PID.TID 0000.0001)    20 @  4.868811950398895E+10              /* I =  1: 20 */
(PID.TID 0000.0001)     ;
(PID.TID 0000.0001) rAs =  /* rAs(1,:,1,:) ( units: m^2 ) */
(PID.TID 0000.0001)                 4.868811950398895E+10,      /* J =  1 */
(PID.TID 0000.0001)                 4.835884682203275E+10,      /* J =  2 */
(PID.TID 0000.0001)                 4.797065633433311E+10,      /* J =  3 */
(PID.TID 0000.0001)                 4.752402099120342E+10,      /* J =  4 */
(PID.TID 0000.0001)                 4.701948494900997E+10,      /* J =  5 */
(PID.TID 0000.0001)                 4.645766290720264E+10,      /* J =  6 */
(PID.TID 0000.0001)                 4.583923935939737E+10,      /* J =  7 */
(PID.TID 0000.0001)                 4.516496775942608E+10,      /* J =  8 */
(PID.TID 0000.0001)                 4.443566960336987E+10,      /* J =  9 */
(PID.TID 0000.0001)                 4.365223342869237E+10,      /* J = 10 */
(PID.TID 0000.0001)                 4.281561373169270E+10,      /* J = 11 */
(PID.TID 0000.0001)                 4.192682980460108E+10,      /* J = 12 */
(PID.TID 0000.0001)                 4.098696449372525E+10,      /* J = 13 */
(PID.TID 0000.0001)                 3.999716288017197E+10,      /* J = 14 */
(PID.TID 0000.0001)                 3.895863088473959E+10,      /* J = 15 */
(PID.TID 0000.0001)                 3.787263379869147E+10       /* J = 16 */
(PID.TID 0000.0001)     ;
(PID.TID 0000.0001) globalArea = /* Integrated horizontal Area (m^2) */
(PID.TID 0000.0001)                 8.853746056302287E+12
(PID.TID 0000.0001)     ;
(PID.TID 0000.0001) // =======================================================
(PID.TID 0000.0001) // End of Model config. summary
(PID.TID 0000.0001) // =======================================================
(PID.TID 0000.0001) 
(PID.TID 0000.0001) == Packages configuration : Check & print summary ==
(PID.TID 0000.0001) 
(PID.TID 0000.0001) KPP_CHECK: #define ALLOW_KPP
(PID.TID 0000.0001) GAD_CHECK: #define ALLOW_GENERIC_ADVDIFF
(PID.TID 0000.0001) // =======================================================
(PID.TID 0000.0001) // CONFIG_CHECK : Normal End
(PID.TID 0000.0001) // =======================================================
(PID.TID 0000.0001) 
(PID.TID 0000.0001)  MDS_READ_FIELD: opening global file: kf_climtheta
(PID.TID 0000.0001)  MDS_READ_FIELD: opening global file: kf_climsalt
(PID.TID 0000.0001) Start initial hydrostatic pressure computation
(PID.TID 0000.0001) Pressure is predetermined for buoyancyRelation OCEANIC
(PID.TID 0000.0001) 
(PID.TID 0000.0001)  MDS_READ_FIELD: opening global file: kf_tx
(PID.TID 0000.0001)  MDS_READ_FIELD: opening global file: kf_ty
(PID.TID 0000.0001)  MDS_READ_FIELD: opening global file: kf_qnet
(PID.TID 0000.0001)  MDS_READ_FIELD: opening global file: kf_empmr
(PID.TID 0000.0001)  MDS_READ_FIELD: opening global file: kf_sst
(PID.TID 0000.0001)  MDS_READ_FIELD: opening global file: kf_sss
(PID.TID 0000.0001)  MDS_READ_FIELD: opening global file: kf_sw
(PID.TID 0000.0001)  write diagnostics summary to file ioUnit:      6
Iter.Nb:         0 ; Time(s):  2.1600000000000E+04
------------------------------------------------------------------------
2D/3D diagnostics: Number of lists:     2
------------------------------------------------------------------------
listId=    1 ; file name: diag3dKPP
 nFlds, nActive,       freq     &     phase        , nLev               
    4  |    4  |    -86400.000000     43200.000000 |  23
 levels:   1   2   3   4   5   6   7   8   9  10  11  12  13  14  15  16  17  18  19  20  21  22  23
 diag# | name   |   ipt  |  iMate | kLev|   count |   mate.C|           
   179 |KPPviscA|      1 |      0 |  23 |       0 |
   180 |KPPdiffS|     24 |      0 |  23 |       0 |
   181 |KPPdiffT|     47 |      0 |  23 |       0 |
   182 |KPPghatK|     70 |      0 |  23 |       0 |
------------------------------------------------------------------------
listId=    2 ; file name: diag2dKPP
 nFlds, nActive,       freq     &     phase        , nLev               
    3  |    3  |    -86400.000000     43200.000000 |   1
 levels:   1
 diag# | name   |   ipt  |  iMate | kLev|   count |   mate.C|           
   183 |KPPhbl  |     93 |      0 |   1 |       0 |
   184 |KPPfrac |     94 |      0 |   1 |       0 |
    73 |MXLDEPTH|     95 |      0 |   1 |       0 |
------------------------------------------------------------------------
Global & Regional Statistics diagnostics: Number of lists:     0
------------------------------------------------------------------------
(PID.TID 0000.0001) // =======================================================
(PID.TID 0000.0001) // Model current state
(PID.TID 0000.0001) // =======================================================
(PID.TID 0000.0001) 
(PID.TID 0000.0001) // =======================================================
(PID.TID 0000.0001) // Begin MONITOR dynamic field statistics
(PID.TID 0000.0001) // =======================================================
(PID.TID 0000.0001) %MON time_tsnumber                =                     0
(PID.TID 0000.0001) %MON time_secondsf                =   2.1600000000000E+04
(PID.TID 0000.0001) %MON dynstat_eta_max              =   0.0000000000000E+00
(PID.TID 0000.0001) %MON dynstat_eta_min              =   0.0000000000000E+00
(PID.TID 0000.0001) %MON dynstat_eta_mean             =   0.0000000000000E+00
(PID.TID 0000.0001) %MON dynstat_eta_sd               =   0.0000000000000E+00
(PID.TID 0000.0001) %MON dynstat_eta_del2             =   0.0000000000000E+00
(PID.TID 0000.0001) %MON dynstat_uvel_max             =   0.0000000000000E+00
(PID.TID 0000.0001) %MON dynstat_uvel_min             =   0.0000000000000E+00
(PID.TID 0000.0001) %MON dynstat_uvel_mean            =   0.0000000000000E+00
(PID.TID 0000.0001) %MON dynstat_uvel_sd              =   0.0000000000000E+00
(PID.TID 0000.0001) %MON dynstat_uvel_del2            =   0.0000000000000E+00
(PID.TID 0000.0001) %MON dynstat_vvel_max             =   0.0000000000000E+00
(PID.TID 0000.0001) %MON dynstat_vvel_min             =   0.0000000000000E+00
(PID.TID 0000.0001) %MON dynstat_vvel_mean            =   0.0000000000000E+00
(PID.TID 0000.0001) %MON dynstat_vvel_sd              =   0.0000000000000E+00
(PID.TID 0000.0001) %MON dynstat_vvel_del2            =   0.0000000000000E+00
(PID.TID 0000.0001) %MON dynstat_wvel_max             =  -0.0000000000000E+00
(PID.TID 0000.0001) %MON dynstat_wvel_min             =  -0.0000000000000E+00
(PID.TID 0000.0001) %MON dynstat_wvel_mean            =   0.0000000000000E+00
(PID.TID 0000.0001) %MON dynstat_wvel_sd              =   0.0000000000000E+00
(PID.TID 0000.0001) %MON dynstat_wvel_del2            =   0.0000000000000E+00
(PID.TID 0000.0001) %MON dynstat_theta_max            =   2.6077934265137E+01
(PID.TID 0000.0001) %MON dynstat_theta_min            =   1.8064365386963E+00
(PID.TID 0000.0001) %MON dynstat_theta_mean           =   5.4784105600004E+00
(PID.TID 0000.0001) %MON dynstat_theta_sd             =   4.5923951934310E+00
(PID.TID 0000.0001) %MON dynstat_theta_del2           =   3.2182299571167E-03
(PID.TID 0000.0001) %MON dynstat_salt_max             =   3.7401638031006E+01
(PID.TID 0000.0001) %MON dynstat_salt_min             =   3.4726768493652E+01
(PID.TID 0000.0001) %MON dynstat_salt_mean            =   3.5157555715946E+01
(PID.TID 0000.0001) %MON dynstat_salt_sd              =   4.1377404390946E-01
(PID.TID 0000.0001) %MON dynstat_salt_del2            =   7.9637690984931E-04
(PID.TID 0000.0001) %MON forcing_qnet_max             =   2.5772109985352E+01
(PID.TID 0000.0001) %MON forcing_qnet_min             =  -1.7793640136719E+02
(PID.TID 0000.0001) %MON forcing_qnet_mean            =  -8.6225629002468E+01
(PID.TID 0000.0001) %MON forcing_qnet_sd              =   5.2166051016192E+01
(PID.TID 0000.0001) %MON forcing_qnet_del2            =   2.4110381106187E+00
(PID.TID 0000.0001) %MON forcing_qsw_max              =  -1.5340605163574E+02
(PID.TID 0000.0001) %MON forcing_qsw_min              =  -3.1156558227539E+02
(PID.TID 0000.0001) %MON forcing_qsw_mean             =  -2.4622679656805E+02
(PID.TID 0000.0001) %MON forcing_qsw_sd               =   4.1213103000011E+01
(PID.TID 0000.0001) %MON forcing_qsw_del2             =   1.7433557690944E+00
(PID.TID 0000.0001) %MON forcing_empmr_max            =   6.3069694468254E-05
(PID.TID 0000.0001) %MON forcing_empmr_min            =   1.2103353894055E-05
(PID.TID 0000.0001) %MON forcing_empmr_mean           =   3.6742450533127E-05
(PID.TID 0000.0001) %MON forcing_empmr_sd             =   1.2117638039994E-05
(PID.TID 0000.0001) %MON forcing_empmr_del2           =   6.6228632669734E-07
(PID.TID 0000.0001) %MON forcing_fu_max               =   1.8047061562538E-01
(PID.TID 0000.0001) %MON forcing_fu_min               =  -1.1958009004593E-01
(PID.TID 0000.0001) %MON forcing_fu_mean              =  -2.8489985088832E-02
(PID.TID 0000.0001) %MON forcing_fu_sd                =   4.0281588068204E-02
(PID.TID 0000.0001) %MON forcing_fu_del2              =   1.8009323524424E-03
(PID.TID 0000.0001) %MON forcing_fv_max               =   1.8579313531518E-02
(PID.TID 0000.0001) %MON forcing_fv_min               =  -9.0046256780624E-02
(PID.TID 0000.0001) %MON forcing_fv_mean              =  -3.5264291717200E-02
(PID.TID 0000.0001) %MON forcing_fv_sd                =   2.3225749029442E-02
(PID.TID 0000.0001) %MON forcing_fv_del2              =   8.4400323570064E-04
(PID.TID 0000.0001) %MON advcfl_uvel_max              =   0.0000000000000E+00
(PID.TID 0000.0001) %MON advcfl_vvel_max              =   0.0000000000000E+00
(PID.TID 0000.0001) %MON advcfl_wvel_max              =   0.0000000000000E+00
(PID.TID 0000.0001) %MON advcfl_W_hf_max              =   0.0000000000000E+00
(PID.TID 0000.0001) %MON pe_b_mean                    =   0.0000000000000E+00
(PID.TID 0000.0001) %MON ke_max                       =   0.0000000000000E+00
(PID.TID 0000.0001) %MON ke_mean                      =   0.0000000000000E+00
(PID.TID 0000.0001) %MON ke_vol                       =   3.6027486600263E+16
(PID.TID 0000.0001) %MON vort_r_min                   =   0.0000000000000E+00
(PID.TID 0000.0001) %MON vort_r_max                   =   0.0000000000000E+00
(PID.TID 0000.0001) %MON vort_a_mean                  =   6.2114138811198E-05
(PID.TID 0000.0001) %MON vort_a_sd                    =   1.9250279297836E-05
(PID.TID 0000.0001) %MON vort_p_mean                  =   7.8095197769436E-05
(PID.TID 0000.0001) %MON vort_p_sd                    =   5.6519384286071E-05
(PID.TID 0000.0001) %MON surfExpan_theta_mean         =   0.0000000000000E+00
(PID.TID 0000.0001) %MON surfExpan_salt_mean          =   0.0000000000000E+00
(PID.TID 0000.0001) // =======================================================
(PID.TID 0000.0001) // End MONITOR dynamic field statistics
(PID.TID 0000.0001) // =======================================================
 EXTERNAL_FIELDS_LOAD,         0 : iP,iLd,i0,i1=   64    0    1    2 ; Wght=  1.0000000000  0.0000000000
 EXTERNAL_FIELDS_LOAD, it=         0 : Reading new data, i0,i1=    1    2 (prev=   64    0 )
(PID.TID 0000.0001)  MDS_READ_FIELD: opening global file: kf_tx
(PID.TID 0000.0001)  MDS_READ_FIELD: opening global file: kf_tx
(PID.TID 0000.0001)  MDS_READ_FIELD: opening global file: kf_ty
(PID.TID 0000.0001)  MDS_READ_FIELD: opening global file: kf_ty
(PID.TID 0000.0001)  MDS_READ_FIELD: opening global file: kf_qnet
(PID.TID 0000.0001)  MDS_READ_FIELD: opening global file: kf_qnet
(PID.TID 0000.0001)  MDS_READ_FIELD: opening global file: kf_empmr
(PID.TID 0000.0001)  MDS_READ_FIELD: opening global file: kf_empmr
(PID.TID 0000.0001)  MDS_READ_FIELD: opening global file: kf_sst
(PID.TID 0000.0001)  MDS_READ_FIELD: opening global file: kf_sst
(PID.TID 0000.0001)  MDS_READ_FIELD: opening global file: kf_sss
(PID.TID 0000.0001)  MDS_READ_FIELD: opening global file: kf_sss
(PID.TID 0000.0001)  MDS_READ_FIELD: opening global file: kf_sw
(PID.TID 0000.0001)  MDS_READ_FIELD: opening global file: kf_sw
(PID.TID 0000.0001) SOLVE_FOR_PRESSURE: putPmEinXvector =    F
 cg2d: Sum(rhs),rhsMax =   1.77635683940025E-15  4.50718046056083E-01
(PID.TID 0000.0001)                    cg2d_init_res =    3.97976985192654E+00
(PID.TID 0000.0001)                       cg2d_iters =    50
(PID.TID 0000.0001)                         cg2d_res =    7.13529409840631E-14
(PID.TID 0000.0001) // =======================================================
(PID.TID 0000.0001) // Begin MONITOR dynamic field statistics
(PID.TID 0000.0001) // =======================================================
(PID.TID 0000.0001) %MON time_tsnumber                =                     1
(PID.TID 0000.0001) %MON time_secondsf                =   2.5200000000000E+04
(PID.TID 0000.0001) %MON dynstat_eta_max              =   7.9836760748431E-02
(PID.TID 0000.0001) %MON dynstat_eta_min              =  -1.0327655472326E-01
(PID.TID 0000.0001) %MON dynstat_eta_mean             =  -6.8937098333144E-18
(PID.TID 0000.0001) %MON dynstat_eta_sd               =   3.4052462395130E-02
(PID.TID 0000.0001) %MON dynstat_eta_del2             =   1.2647997728795E-03
(PID.TID 0000.0001) %MON dynstat_uvel_max             =   5.3768174897955E-02
(PID.TID 0000.0001) %MON dynstat_uvel_min             =  -4.2467572873595E-02
(PID.TID 0000.0001) %MON dynstat_uvel_mean            =  -1.7165275679105E-03
(PID.TID 0000.0001) %MON dynstat_uvel_sd              =   1.4723316365539E-03
(PID.TID 0000.0001) %MON dynstat_uvel_del2            =   4.2417684841446E-05
(PID.TID 0000.0001) %MON dynstat_vvel_max             =   1.0125026293970E-02
(PID.TID 0000.0001) %MON dynstat_vvel_min             =  -2.9292158438792E-02
(PID.TID 0000.0001) %MON dynstat_vvel_mean            =  -1.2875957687081E-04
(PID.TID 0000.0001) %MON dynstat_vvel_sd              =   1.6350028540545E-03
(PID.TID 0000.0001) %MON dynstat_vvel_del2            =   4.9752640558499E-05
(PID.TID 0000.0001) %MON dynstat_wvel_max             =   4.7445024309587E-05
(PID.TID 0000.0001) %MON dynstat_wvel_min             =  -9.2452810523346E-05
(PID.TID 0000.0001) %MON dynstat_wvel_mean            =  -6.7528723154006E-22
(PID.TID 0000.0001) %MON dynstat_wvel_sd              =   1.2604002795626E-05
(PID.TID 0000.0001) %MON dynstat_wvel_del2            =   2.5526490745237E-07
(PID.TID 0000.0001) %MON dynstat_theta_max            =   2.6076654047948E+01
(PID.TID 0000.0001) %MON dynstat_theta_min            =   1.8064390104771E+00
(PID.TID 0000.0001) %MON dynstat_theta_mean           =   5.4784296546519E+00
(PID.TID 0000.0001) %MON dynstat_theta_sd             =   4.5924594548543E+00
(PID.TID 0000.0001) %MON dynstat_theta_del2           =   3.2182016942959E-03
(PID.TID 0000.0001) %MON dynstat_salt_max             =   3.7400751159650E+01
(PID.TID 0000.0001) %MON dynstat_salt_min             =   3.4726771995658E+01
(PID.TID 0000.0001) %MON dynstat_salt_mean            =   3.5157556923008E+01
(PID.TID 0000.0001) %MON dynstat_salt_sd              =   4.1377676512749E-01
(PID.TID 0000.0001) %MON dynstat_salt_del2            =   7.9636075213964E-04
(PID.TID 0000.0001) %MON forcing_qnet_max             =   2.5772109985352E+01
(PID.TID 0000.0001) %MON forcing_qnet_min             =  -1.7793640136719E+02
(PID.TID 0000.0001) %MON forcing_qnet_mean            =  -8.6225629002468E+01
(PID.TID 0000.0001) %MON forcing_qnet_sd              =   5.2166051016192E+01
(PID.TID 0000.0001) %MON forcing_qnet_del2            =   2.4110381106187E+00
(PID.TID 0000.0001) %MON forcing_qsw_max              =  -1.5340605163574E+02
(PID.TID 0000.0001) %MON forcing_qsw_min              =  -3.1156558227539E+02
(PID.TID 0000.0001) %MON forcing_qsw_mean             =  -2.4622679656805E+02
(PID.TID 0000.0001) %MON forcing_qsw_sd               =   4.1213103000011E+01
(PID.TID 0000.0001) %MON forcing_qsw_del2             =   1.7433557690944E+00
(PID.TID 0000.0001) %MON forcing_empmr_max            =   6.3069694468254E-05
(PID.TID 0000.0001) %MON forcing_empmr_min            =   1.2103353894055E-05
(PID.TID 0000.0001) %MON forcing_empmr_mean           =   3.6742450533127E-05
(PID.TID 0000.0001) %MON forcing_empmr_sd             =   1.2117638039994E-05
(PID.TID 0000.0001) %MON forcing_empmr_del2           =   6.6228632669734E-07
(PID.TID 0000.0001) %MON forcing_fu_max               =   1.8047061562538E-01
(PID.TID 0000.0001) %MON forcing_fu_min               =  -1.1958009004593E-01
(PID.TID 0000.0001) %MON forcing_fu_mean              =  -2.8489985088832E-02
(PID.TID 0000.0001) %MON forcing_fu_sd                =   4.0281588068204E-02
(PID.TID 0000.0001) %MON forcing_fu_del2              =   1.8009323524424E-03
(PID.TID 0000.0001) %MON forcing_fv_max               =   1.8579313531518E-02
(PID.TID 0000.0001) %MON forcing_fv_min               =  -9.0046256780624E-02
(PID.TID 0000.0001) %MON forcing_fv_mean              =  -3.5264291717200E-02
(PID.TID 0000.0001) %MON forcing_fv_sd                =   2.3225749029442E-02
(PID.TID 0000.0001) %MON forcing_fv_del2              =   8.4400323570064E-04
(PID.TID 0000.0001) %MON advcfl_uvel_max              =   1.1201557325257E-03
(PID.TID 0000.0001) %MON advcfl_vvel_max              =   4.7424971624307E-04
(PID.TID 0000.0001) %MON advcfl_wvel_max              =   2.0655310944651E-02
(PID.TID 0000.0001) %MON advcfl_W_hf_max              =   1.0497648172779E-02
(PID.TID 0000.0001) %MON pe_b_mean                    =   1.3977488762187E-06
(PID.TID 0000.0001) %MON ke_max                       =   9.5722607342244E-04
(PID.TID 0000.0001) %MON ke_mean                      =   3.4842983856204E-06
(PID.TID 0000.0001) %MON ke_vol                       =   3.6027486600263E+16
(PID.TID 0000.0001) %MON vort_r_min                   =  -2.2165902330424E-07
(PID.TID 0000.0001) %MON vort_r_max                   =   2.4532916268334E-07
(PID.TID 0000.0001) %MON vort_a_mean                  =   6.2114138811197E-05
(PID.TID 0000.0001) %MON vort_a_sd                    =   1.9248843146312E-05
(PID.TID 0000.0001) %MON vort_p_mean                  =   7.8095197769435E-05
(PID.TID 0000.0001) %MON vort_p_sd                    =   5.6516399347248E-05
(PID.TID 0000.0001) %MON surfExpan_theta_mean         =   7.5449674343293E-06
(PID.TID 0000.0001) %MON surfExpan_salt_mean          =   2.1214924697109E-06
(PID.TID 0000.0001) // =======================================================
(PID.TID 0000.0001) // End MONITOR dynamic field statistics
(PID.TID 0000.0001) // =======================================================
 EXTERNAL_FIELDS_LOAD,         1 : iP,iLd,i0,i1=    1    2    1    2 ; Wght=  0.9166666667  0.0833333333
 cg2d: Sum(rhs),rhsMax =  -4.44089209850063E-15  5.52689754688097E-01
(PID.TID 0000.0001)                    cg2d_init_res =    9.06331022340791E-01
(PID.TID 0000.0001)                       cg2d_iters =    47
(PID.TID 0000.0001)                         cg2d_res =    7.08960287067443E-14
(PID.TID 0000.0001) // =======================================================
(PID.TID 0000.0001) // Begin MONITOR dynamic field statistics
(PID.TID 0000.0001) // =======================================================
(PID.TID 0000.0001) %MON time_tsnumber                =                     2
(PID.TID 0000.0001) %MON time_secondsf                =   2.8800000000000E+04
(PID.TID 0000.0001) %MON dynstat_eta_max              =   1.4598358656733E-01
(PID.TID 0000.0001) %MON dynstat_eta_min              =  -1.7949064920904E-01
(PID.TID 0000.0001) %MON dynstat_eta_mean             =  -2.7574839333258E-18
(PID.TID 0000.0001) %MON dynstat_eta_sd               =   6.6445176340177E-02
(PID.TID 0000.0001) %MON dynstat_eta_del2             =   1.4280857007125E-03
(PID.TID 0000.0001) %MON dynstat_uvel_max             =   1.0060833485002E-01
(PID.TID 0000.0001) %MON dynstat_uvel_min             =  -7.2727344165335E-02
(PID.TID 0000.0001) %MON dynstat_uvel_mean            =  -2.0943000785578E-03
(PID.TID 0000.0001) %MON dynstat_uvel_sd              =   2.6281363715646E-03
(PID.TID 0000.0001) %MON dynstat_uvel_del2            =   7.7655275933165E-05
(PID.TID 0000.0001) %MON dynstat_vvel_max             =   2.0722723682987E-02
(PID.TID 0000.0001) %MON dynstat_vvel_min             =  -5.2817011763877E-02
(PID.TID 0000.0001) %MON dynstat_vvel_mean            =  -1.9870534339590E-04
(PID.TID 0000.0001) %MON dynstat_vvel_sd              =   2.9299755331633E-03
(PID.TID 0000.0001) %MON dynstat_vvel_del2            =   9.6363942039472E-05
(PID.TID 0000.0001) %MON dynstat_wvel_max             =   7.4099665893126E-05
(PID.TID 0000.0001) %MON dynstat_wvel_min             =  -1.3828325757217E-04
(PID.TID 0000.0001) %MON dynstat_wvel_mean            =  -2.2509574384669E-22
(PID.TID 0000.0001) %MON dynstat_wvel_sd              =   1.9037425916666E-05
(PID.TID 0000.0001) %MON dynstat_wvel_del2            =   4.0216648910777E-07
(PID.TID 0000.0001) %MON dynstat_theta_max            =   2.6075142292194E+01
(PID.TID 0000.0001) %MON dynstat_theta_min            =   1.8064390244588E+00
(PID.TID 0000.0001) %MON dynstat_theta_mean           =   5.4784377095686E+00
(PID.TID 0000.0001) %MON dynstat_theta_sd             =   4.5924854817423E+00
(PID.TID 0000.0001) %MON dynstat_theta_del2           =   3.2141432664343E-03
(PID.TID 0000.0001) %MON dynstat_salt_max             =   3.7400673034209E+01
(PID.TID 0000.0001) %MON dynstat_salt_min             =   3.4726779356133E+01
(PID.TID 0000.0001) %MON dynstat_salt_mean            =   3.5157555144117E+01
(PID.TID 0000.0001) %MON dynstat_salt_sd              =   4.1376901135582E-01
(PID.TID 0000.0001) %MON dynstat_salt_del2            =   7.9627355803812E-04
(PID.TID 0000.0001) %MON forcing_qnet_max             =   2.6062016805013E+01
(PID.TID 0000.0001) %MON forcing_qnet_min             =  -1.7659355545044E+02
(PID.TID 0000.0001) %MON forcing_qnet_mean            =  -8.5257431754752E+01
(PID.TID 0000.0001) %MON forcing_qnet_sd              =   5.2007111613118E+01
(PID.TID 0000.0001) %MON forcing_qnet_del2            =   2.3803458160623E+00
(PID.TID 0000.0001) %MON forcing_qsw_max              =  -1.5255920283000E+02
(PID.TID 0000.0001) %MON forcing_qsw_min              =  -3.1216041564941E+02
(PID.TID 0000.0001) %MON forcing_qsw_mean             =  -2.4650639625986E+02
(PID.TID 0000.0001) %MON forcing_qsw_sd               =   4.1246809110616E+01
(PID.TID 0000.0001) %MON forcing_qsw_del2             =   1.7277967551076E+00
(PID.TID 0000.0001) %MON forcing_empmr_max            =   6.3481127135508E-05
(PID.TID 0000.0001) %MON forcing_empmr_min            =   1.2253066312236E-05
(PID.TID 0000.0001) %MON forcing_empmr_mean           =   3.7131810081233E-05
(PID.TID 0000.0001) %MON forcing_empmr_sd             =   1.2044395715904E-05
(PID.TID 0000.0001) %MON forcing_empmr_del2           =   6.5734890976984E-07
(PID.TID 0000.0001) %MON forcing_fu_max               =   1.8893417219321E-01
(PID.TID 0000.0001) %MON forcing_fu_min               =  -1.1874365620315E-01
(PID.TID 0000.0001) %MON forcing_fu_mean              =  -2.8759187905171E-02
(PID.TID 0000.0001) %MON forcing_fu_sd                =   4.0358002523383E-02
(PID.TID 0000.0001) %MON forcing_fu_del2              =   1.8039718325811E-03
(PID.TID 0000.0001) %MON forcing_fv_max               =   1.8217393197119E-02
(PID.TID 0000.0001) %MON forcing_fv_min               =  -8.8495723282297E-02
(PID.TID 0000.0001) %MON forcing_fv_mean              =  -3.5583801411581E-02
(PID.TID 0000.0001) %MON forcing_fv_sd                =   2.2953694908501E-02
(PID.TID 0000.0001) %MON forcing_fv_del2              =   8.2270444426311E-04
(PID.TID 0000.0001) %MON advcfl_uvel_max              =   2.0959796986971E-03
(PID.TID 0000.0001) %MON advcfl_vvel_max              =   8.5512485855782E-04
(PID.TID 0000.0001) %MON advcfl_wvel_max              =   1.6314780680506E-02
(PID.TID 0000.0001) %MON advcfl_W_hf_max              =   1.0114813372218E-02
(PID.TID 0000.0001) %MON pe_b_mean                    =   5.3218058237347E-06
(PID.TID 0000.0001) %MON ke_max                       =   2.9026529194756E-03
(PID.TID 0000.0001) %MON ke_mean                      =   8.8732180416059E-06
(PID.TID 0000.0001) %MON ke_vol                       =   3.6027486600263E+16
(PID.TID 0000.0001) %MON vort_r_min                   =  -4.0114138288042E-07
(PID.TID 0000.0001) %MON vort_r_max                   =   4.5904772841114E-07
(PID.TID 0000.0001) %MON vort_a_mean                  =   6.2114138811197E-05
(PID.TID 0000.0001) %MON vort_a_sd                    =   1.9248533304489E-05
(PID.TID 0000.0001) %MON vort_p_mean                  =   7.8095197769435E-05
(PID.TID 0000.0001) %MON vort_p_sd                    =   5.6515609231459E-05
(PID.TID 0000.0001) %MON surfExpan_theta_mean         =   9.6335398195921E-06
(PID.TID 0000.0001) %MON surfExpan_salt_mean          =   2.0712563321665E-06
(PID.TID 0000.0001) // =======================================================
(PID.TID 0000.0001) // End MONITOR dynamic field statistics
(PID.TID 0000.0001) // =======================================================
 EXTERNAL_FIELDS_LOAD,         2 : iP,iLd,i0,i1=    1    2    1    2 ; Wght=  0.8333333333  0.1666666667
 cg2d: Sum(rhs),rhsMax =  -2.66453525910038E-15  5.79226880494065E-01
(PID.TID 0000.0001)                    cg2d_init_res =    5.34088865828346E-01
(PID.TID 0000.0001)                       cg2d_iters =    46
(PID.TID 0000.0001)                         cg2d_res =    7.20023788977830E-14
(PID.TID 0000.0001) // =======================================================
(PID.TID 0000.0001) // Begin MONITOR dynamic field statistics
(PID.TID 0000.0001) // =======================================================
(PID.TID 0000.0001) %MON time_tsnumber                =                     3
(PID.TID 0000.0001) %MON time_secondsf                =   3.2400000000000E+04
(PID.TID 0000.0001) %MON dynstat_eta_max              =   1.8285443827621E-01
(PID.TID 0000.0001) %MON dynstat_eta_min              =  -2.3264631906047E-01
(PID.TID 0000.0001) %MON dynstat_eta_mean             =  -2.7574839333258E-17
(PID.TID 0000.0001) %MON dynstat_eta_sd               =   8.9652979725374E-02
(PID.TID 0000.0001) %MON dynstat_eta_del2             =   1.3647246246523E-03
(PID.TID 0000.0001) %MON dynstat_uvel_max             =   1.3753820034340E-01
(PID.TID 0000.0001) %MON dynstat_uvel_min             =  -9.5846147146413E-02
(PID.TID 0000.0001) %MON dynstat_uvel_mean            =  -1.5898593843330E-03
(PID.TID 0000.0001) %MON dynstat_uvel_sd              =   3.6028939223500E-03
(PID.TID 0000.0001) %MON dynstat_uvel_del2            =   1.0983774898288E-04
(PID.TID 0000.0001) %MON dynstat_vvel_max             =   2.9596980268590E-02
(PID.TID 0000.0001) %MON dynstat_vvel_min             =  -7.1144134732749E-02
(PID.TID 0000.0001) %MON dynstat_vvel_mean            =  -4.0096547942810E-04
(PID.TID 0000.0001) %MON dynstat_vvel_sd              =   4.0495474543895E-03
(PID.TID 0000.0001) %MON dynstat_vvel_del2            =   1.3302519126217E-04
(PID.TID 0000.0001) %MON dynstat_wvel_max             =   9.3852635206541E-05
(PID.TID 0000.0001) %MON dynstat_wvel_min             =  -1.6183206615043E-04
(PID.TID 0000.0001) %MON dynstat_wvel_mean            =  -4.5019148769337E-22
(PID.TID 0000.0001) %MON dynstat_wvel_sd              =   2.4201247528746E-05
(PID.TID 0000.0001) %MON dynstat_wvel_del2            =   5.3552373621345E-07
(PID.TID 0000.0001) %MON dynstat_theta_max            =   2.6073529962196E+01
(PID.TID 0000.0001) %MON dynstat_theta_min            =   1.8064395768117E+00
(PID.TID 0000.0001) %MON dynstat_theta_mean           =   5.4784465972182E+00
(PID.TID 0000.0001) %MON dynstat_theta_sd             =   4.5925137059775E+00
(PID.TID 0000.0001) %MON dynstat_theta_del2           =   3.2122435171975E-03
(PID.TID 0000.0001) %MON dynstat_salt_max             =   3.7400692065084E+01
(PID.TID 0000.0001) %MON dynstat_salt_min             =   3.4726785325981E+01
(PID.TID 0000.0001) %MON dynstat_salt_mean            =   3.5157554572150E+01
(PID.TID 0000.0001) %MON dynstat_salt_sd              =   4.1376564404755E-01
(PID.TID 0000.0001) %MON dynstat_salt_del2            =   7.9618785435514E-04
(PID.TID 0000.0001) %MON forcing_qnet_max             =   2.6353609720866E+01
(PID.TID 0000.0001) %MON forcing_qnet_min             =  -1.7525070953369E+02
(PID.TID 0000.0001) %MON forcing_qnet_mean            =  -8.4289234507036E+01
(PID.TID 0000.0001) %MON forcing_qnet_sd              =   5.1878062558190E+01
(PID.TID 0000.0001) %MON forcing_qnet_del2            =   2.3513903571809E+00
(PID.TID 0000.0001) %MON forcing_qsw_max              =  -1.5171235402425E+02
(PID.TID 0000.0001) %MON forcing_qsw_min              =  -3.1275524902344E+02
(PID.TID 0000.0001) %MON forcing_qsw_mean             =  -2.4678599595167E+02
(PID.TID 0000.0001) %MON forcing_qsw_sd               =   4.1303728041958E+01
(PID.TID 0000.0001) %MON forcing_qsw_del2             =   1.7138243902279E+00
(PID.TID 0000.0001) %MON forcing_empmr_max            =   6.3953881584903E-05
(PID.TID 0000.0001) %MON forcing_empmr_min            =   1.2402778730417E-05
(PID.TID 0000.0001) %MON forcing_empmr_mean           =   3.7521169629339E-05
(PID.TID 0000.0001) %MON forcing_empmr_sd             =   1.1981030382910E-05
(PID.TID 0000.0001) %MON forcing_empmr_del2           =   6.5299543100169E-07
(PID.TID 0000.0001) %MON forcing_fu_max               =   1.9739772876104E-01
(PID.TID 0000.0001) %MON forcing_fu_min               =  -1.1790722236037E-01
(PID.TID 0000.0001) %MON forcing_fu_mean              =  -2.9028390721510E-02
(PID.TID 0000.0001) %MON forcing_fu_sd                =   4.0466112132662E-02
(PID.TID 0000.0001) %MON forcing_fu_del2              =   1.8104808306324E-03
(PID.TID 0000.0001) %MON forcing_fv_max               =   1.9703799858689E-02
(PID.TID 0000.0001) %MON forcing_fv_min               =  -8.6945189783971E-02
(PID.TID 0000.0001) %MON forcing_fv_mean              =  -3.5903311105962E-02
(PID.TID 0000.0001) %MON forcing_fv_sd                =   2.2732602892994E-02
(PID.TID 0000.0001) %MON forcing_fv_del2              =   8.0522976737963E-04
(PID.TID 0000.0001) %MON advcfl_uvel_max              =   2.8653418838992E-03
(PID.TID 0000.0001) %MON advcfl_vvel_max              =   1.1518470303193E-03
(PID.TID 0000.0001) %MON advcfl_wvel_max              =   1.3271166612042E-02
(PID.TID 0000.0001) %MON advcfl_W_hf_max              =   9.3265943023702E-03
(PID.TID 0000.0001) %MON pe_b_mean                    =   9.6886120129364E-06
(PID.TID 0000.0001) %MON ke_max                       =   5.5100061094091E-03
(PID.TID 0000.0001) %MON ke_mean                      =   1.4256868688084E-05
(PID.TID 0000.0001) %MON ke_vol                       =   3.6027486600263E+16
(PID.TID 0000.0001) %MON vort_r_min                   =  -5.1860624947268E-07
(PID.TID 0000.0001) %MON vort_r_max                   =   6.2754838882402E-07
(PID.TID 0000.0001) %MON vort_a_mean                  =   6.2114138811197E-05
(PID.TID 0000.0001) %MON vort_a_sd                    =   1.9248962213692E-05
(PID.TID 0000.0001) %MON vort_p_mean                  =   7.8095197769435E-05
(PID.TID 0000.0001) %MON vort_p_sd                    =   5.6516429789785E-05
(PID.TID 0000.0001) %MON surfExpan_theta_mean         =   9.0472374461179E-06
(PID.TID 0000.0001) %MON surfExpan_salt_mean          =   1.1547990276777E-06
(PID.TID 0000.0001) // =======================================================
(PID.TID 0000.0001) // End MONITOR dynamic field statistics
(PID.TID 0000.0001) // =======================================================
 EXTERNAL_FIELDS_LOAD,         3 : iP,iLd,i0,i1=    1    2    1    2 ; Wght=  0.7500000000  0.2500000000
 cg2d: Sum(rhs),rhsMax =   2.66453525910038E-15  6.02056813230886E-01
(PID.TID 0000.0001)                    cg2d_init_res =    2.85232868245579E-01
(PID.TID 0000.0001)                       cg2d_iters =    46
(PID.TID 0000.0001)                         cg2d_res =    9.62774734472069E-14
(PID.TID 0000.0001) // =======================================================
(PID.TID 0000.0001) // Begin MONITOR dynamic field statistics
(PID.TID 0000.0001) // =======================================================
(PID.TID 0000.0001) %MON time_tsnumber                =                     4
(PID.TID 0000.0001) %MON time_secondsf                =   3.6000000000000E+04
(PID.TID 0000.0001) %MON dynstat_eta_max              =   1.9277169275865E-01
(PID.TID 0000.0001) %MON dynstat_eta_min              =  -2.6377419382240E-01
(PID.TID 0000.0001) %MON dynstat_eta_mean             =  -5.5149678666516E-17
(PID.TID 0000.0001) %MON dynstat_eta_sd               =   1.0099361505698E-01
(PID.TID 0000.0001) %MON dynstat_eta_del2             =   1.3399923382302E-03
(PID.TID 0000.0001) %MON dynstat_uvel_max             =   1.6127431408875E-01
(PID.TID 0000.0001) %MON dynstat_uvel_min             =  -1.1441681602166E-01
(PID.TID 0000.0001) %MON dynstat_uvel_mean            =  -7.7897557997773E-04
(PID.TID 0000.0001) %MON dynstat_uvel_sd              =   4.5239227321786E-03
(PID.TID 0000.0001) %MON dynstat_uvel_del2            =   1.4014799890608E-04
(PID.TID 0000.0001) %MON dynstat_vvel_max             =   3.6142574228846E-02
(PID.TID 0000.0001) %MON dynstat_vvel_min             =  -8.3865320688198E-02
(PID.TID 0000.0001) %MON dynstat_vvel_mean            =  -6.2368206248275E-04
(PID.TID 0000.0001) %MON dynstat_vvel_sd              =   4.9508103209739E-03
(PID.TID 0000.0001) %MON dynstat_vvel_del2            =   1.5898604341957E-04
(PID.TID 0000.0001) %MON dynstat_wvel_max             =   1.0535387367338E-04
(PID.TID 0000.0001) %MON dynstat_wvel_min             =  -1.6703971770213E-04
(PID.TID 0000.0001) %MON dynstat_wvel_mean            =   9.0038297538675E-22
(PID.TID 0000.0001) %MON dynstat_wvel_sd              =   2.8329070578826E-05
(PID.TID 0000.0001) %MON dynstat_wvel_del2            =   6.3718639226440E-07
(PID.TID 0000.0001) %MON dynstat_theta_max            =   2.6071819530518E+01
(PID.TID 0000.0001) %MON dynstat_theta_min            =   1.8064406273643E+00
(PID.TID 0000.0001) %MON dynstat_theta_mean           =   5.4784572064160E+00
(PID.TID 0000.0001) %MON dynstat_theta_sd             =   4.5925473055501E+00
(PID.TID 0000.0001) %MON dynstat_theta_del2           =   3.2098421784188E-03
(PID.TID 0000.0001) %MON dynstat_salt_max             =   3.7400961247285E+01
(PID.TID 0000.0001) %MON dynstat_salt_min             =   3.4726790389818E+01
(PID.TID 0000.0001) %MON dynstat_salt_mean            =   3.5157555280535E+01
(PID.TID 0000.0001) %MON dynstat_salt_sd              =   4.1376666504441E-01
(PID.TID 0000.0001) %MON dynstat_salt_del2            =   7.9608883429474E-04
(PID.TID 0000.0001) %MON forcing_qnet_max             =   2.7849277496338E+01
(PID.TID 0000.0001) %MON forcing_qnet_min             =  -1.7390786361694E+02
(PID.TID 0000.0001) %MON forcing_qnet_mean            =  -8.3321037259321E+01
(PID.TID 0000.0001) %MON forcing_qnet_sd              =   5.1779127338922E+01
(PID.TID 0000.0001) %MON forcing_qnet_del2            =   2.3242366476437E+00
(PID.TID 0000.0001) %MON forcing_qsw_max              =  -1.5086550521851E+02
(PID.TID 0000.0001) %MON forcing_qsw_min              =  -3.1335008239746E+02
(PID.TID 0000.0001) %MON forcing_qsw_mean             =  -2.4706559564349E+02
(PID.TID 0000.0001) %MON forcing_qsw_sd               =   4.1383764013908E+01
(PID.TID 0000.0001) %MON forcing_qsw_del2             =   1.7014777631147E+00
(PID.TID 0000.0001) %MON forcing_empmr_max            =   6.4426636034298E-05
(PID.TID 0000.0001) %MON forcing_empmr_min            =   1.2552491148599E-05
(PID.TID 0000.0001) %MON forcing_empmr_mean           =   3.7910529177446E-05
(PID.TID 0000.0001) %MON forcing_empmr_sd             =   1.1927699455179E-05
(PID.TID 0000.0001) %MON forcing_empmr_del2           =   6.4923763733377E-07
(PID.TID 0000.0001) %MON forcing_fu_max               =   2.0586128532887E-01
(PID.TID 0000.0001) %MON forcing_fu_min               =  -1.1707078851759E-01
(PID.TID 0000.0001) %MON forcing_fu_mean              =  -2.9297593537849E-02
(PID.TID 0000.0001) %MON forcing_fu_sd                =   4.0605663738742E-02
(PID.TID 0000.0001) %MON forcing_fu_del2              =   1.8204221307430E-03
(PID.TID 0000.0001) %MON forcing_fv_max               =   2.1190206520259E-02
(PID.TID 0000.0001) %MON forcing_fv_min               =  -8.5394656285644E-02
(PID.TID 0000.0001) %MON forcing_fv_mean              =  -3.6222820800343E-02
(PID.TID 0000.0001) %MON forcing_fv_sd                =   2.2563971082074E-02
(PID.TID 0000.0001) %MON forcing_fv_del2              =   7.9183242473716E-04
(PID.TID 0000.0001) %MON advcfl_uvel_max              =   3.3598378181614E-03
(PID.TID 0000.0001) %MON advcfl_vvel_max              =   1.3578072309734E-03
(PID.TID 0000.0001) %MON advcfl_wvel_max              =   8.3306226901067E-03
(PID.TID 0000.0001) %MON advcfl_W_hf_max              =   6.4369798107223E-03
(PID.TID 0000.0001) %MON pe_b_mean                    =   1.2294756836775E-05
(PID.TID 0000.0001) %MON ke_max                       =   7.7645617279332E-03
(PID.TID 0000.0001) %MON ke_mean                      =   2.0425570941365E-05
(PID.TID 0000.0001) %MON ke_vol                       =   3.6027486600263E+16
(PID.TID 0000.0001) %MON vort_r_min                   =  -5.7673201789379E-07
(PID.TID 0000.0001) %MON vort_r_max                   =   7.3584964549779E-07
(PID.TID 0000.0001) %MON vort_a_mean                  =   6.2114138811197E-05
(PID.TID 0000.0001) %MON vort_a_sd                    =   1.9249647379932E-05
(PID.TID 0000.0001) %MON vort_p_mean                  =   7.8095197769435E-05
(PID.TID 0000.0001) %MON vort_p_sd                    =   5.6517940703894E-05
(PID.TID 0000.0001) %MON surfExpan_theta_mean         =   7.3968467335551E-06
(PID.TID 0000.0001) %MON surfExpan_salt_mean          =   2.0959083478403E-07
(PID.TID 0000.0001) // =======================================================
(PID.TID 0000.0001) // End MONITOR dynamic field statistics
(PID.TID 0000.0001) // =======================================================
 EXTERNAL_FIELDS_LOAD,         4 : iP,iLd,i0,i1=    1    2    1    2 ; Wght=  0.6666666667  0.3333333333
 cg2d: Sum(rhs),rhsMax =   8.88178419700125E-15  6.16492499342463E-01
(PID.TID 0000.0001)                    cg2d_init_res =    2.30859719111716E-01
(PID.TID 0000.0001)                       cg2d_iters =    46
(PID.TID 0000.0001)                         cg2d_res =    9.55279473997597E-14
(PID.TID 0000.0001) // =======================================================
(PID.TID 0000.0001) // Begin MONITOR dynamic field statistics
(PID.TID 0000.0001) // =======================================================
(PID.TID 0000.0001) %MON time_tsnumber                =                     5
(PID.TID 0000.0001) %MON time_secondsf                =   3.9600000000000E+04
(PID.TID 0000.0001) %MON dynstat_eta_max              =   1.8522604575293E-01
(PID.TID 0000.0001) %MON dynstat_eta_min              =  -2.7596786031175E-01
(PID.TID 0000.0001) %MON dynstat_eta_mean             =  -6.0664646533167E-17
(PID.TID 0000.0001) %MON dynstat_eta_sd               =   1.0271613125487E-01
(PID.TID 0000.0001) %MON dynstat_eta_del2             =   1.3339527717609E-03
(PID.TID 0000.0001) %MON dynstat_uvel_max             =   1.6570916223485E-01
(PID.TID 0000.0001) %MON dynstat_uvel_min             =  -1.3039902950567E-01
(PID.TID 0000.0001) %MON dynstat_uvel_mean            =  -6.9345351194320E-05
(PID.TID 0000.0001) %MON dynstat_uvel_sd              =   5.4069891748750E-03
(PID.TID 0000.0001) %MON dynstat_uvel_del2            =   1.6919334996788E-04
(PID.TID 0000.0001) %MON dynstat_vvel_max             =   4.0241586864338E-02
(PID.TID 0000.0001) %MON dynstat_vvel_min             =  -9.8575398225296E-02
(PID.TID 0000.0001) %MON dynstat_vvel_mean            =  -7.1862582825124E-04
(PID.TID 0000.0001) %MON dynstat_vvel_sd              =   5.6257240710641E-03
(PID.TID 0000.0001) %MON dynstat_vvel_del2            =   1.7419642967636E-04
(PID.TID 0000.0001) %MON dynstat_wvel_max             =   1.0832935751888E-04
(PID.TID 0000.0001) %MON dynstat_wvel_min             =  -1.5632669161648E-04
(PID.TID 0000.0001) %MON dynstat_wvel_mean            =   2.2509574384669E-22
(PID.TID 0000.0001) %MON dynstat_wvel_sd              =   3.1236096478991E-05
(PID.TID 0000.0001) %MON dynstat_wvel_del2            =   7.0224265082334E-07
(PID.TID 0000.0001) %MON dynstat_theta_max            =   2.6070079739390E+01
(PID.TID 0000.0001) %MON dynstat_theta_min            =   1.8064422258814E+00
(PID.TID 0000.0001) %MON dynstat_theta_mean           =   5.4784696253818E+00
(PID.TID 0000.0001) %MON dynstat_theta_sd             =   4.5925868937027E+00
(PID.TID 0000.0001) %MON dynstat_theta_del2           =   3.2072809856421E-03
(PID.TID 0000.0001) %MON dynstat_salt_max             =   3.7401228295697E+01
(PID.TID 0000.0001) %MON dynstat_salt_min             =   3.4726794078747E+01
(PID.TID 0000.0001) %MON dynstat_salt_mean            =   3.5157556850373E+01
(PID.TID 0000.0001) %MON dynstat_salt_sd              =   4.1377035169741E-01
(PID.TID 0000.0001) %MON dynstat_salt_del2            =   7.9598453377838E-04
(PID.TID 0000.0001) %MON forcing_qnet_max             =   2.9530278523763E+01
(PID.TID 0000.0001) %MON forcing_qnet_min             =  -1.7256501770020E+02
(PID.TID 0000.0001) %MON forcing_qnet_mean            =  -8.2352840011605E+01
(PID.TID 0000.0001) %MON forcing_qnet_sd              =   5.1710478801745E+01
(PID.TID 0000.0001) %MON forcing_qnet_del2            =   2.2989485316694E+00
(PID.TID 0000.0001) %MON forcing_qsw_max              =  -1.5001865641276E+02
(PID.TID 0000.0001) %MON forcing_qsw_min              =  -3.1394491577148E+02
(PID.TID 0000.0001) %MON forcing_qsw_mean             =  -2.4734519533530E+02
(PID.TID 0000.0001) %MON forcing_qsw_sd               =   4.1486783235049E+01
(PID.TID 0000.0001) %MON forcing_qsw_del2             =   1.6907924888827E+00
(PID.TID 0000.0001) %MON forcing_empmr_max            =   6.4899390483693E-05
(PID.TID 0000.0001) %MON forcing_empmr_min            =   1.2702203566780E-05
(PID.TID 0000.0001) %MON forcing_empmr_mean           =   3.8299888725552E-05
(PID.TID 0000.0001) %MON forcing_empmr_sd             =   1.1884538019288E-05
(PID.TID 0000.0001) %MON forcing_empmr_del2           =   6.4608592280016E-07
(PID.TID 0000.0001) %MON forcing_fu_max               =   2.1432484189669E-01
(PID.TID 0000.0001) %MON forcing_fu_min               =  -1.1623435467482E-01
(PID.TID 0000.0001) %MON forcing_fu_mean              =  -2.9566796354187E-02
(PID.TID 0000.0001) %MON forcing_fu_sd                =   4.0776334524688E-02
(PID.TID 0000.0001) %MON forcing_fu_del2              =   1.8337399108869E-03
(PID.TID 0000.0001) %MON forcing_fv_max               =   2.2676613181829E-02
(PID.TID 0000.0001) %MON forcing_fv_min               =  -8.3844122787317E-02
(PID.TID 0000.0001) %MON forcing_fv_mean              =  -3.6542330494723E-02
(PID.TID 0000.0001) %MON forcing_fv_sd                =   2.2448981715413E-02
(PID.TID 0000.0001) %MON forcing_fv_del2              =   7.8272181161821E-04
(PID.TID 0000.0001) %MON advcfl_uvel_max              =   3.4522292854776E-03
(PID.TID 0000.0001) %MON advcfl_vvel_max              =   1.5959682429883E-03
(PID.TID 0000.0001) %MON advcfl_wvel_max              =   3.9746516260991E-03
(PID.TID 0000.0001) %MON advcfl_W_hf_max              =   3.6472887130722E-03
(PID.TID 0000.0001) %MON pe_b_mean                    =   1.2717724562638E-05
(PID.TID 0000.0001) %MON ke_max                       =   8.5951495152593E-03
(PID.TID 0000.0001) %MON ke_mean                      =   2.7294704246143E-05
(PID.TID 0000.0001) %MON ke_vol                       =   3.6027486600263E+16
(PID.TID 0000.0001) %MON vort_r_min                   =  -5.6308890328100E-07
(PID.TID 0000.0001) %MON vort_r_max                   =   7.5608461877660E-07
(PID.TID 0000.0001) %MON vort_a_mean                  =   6.2114138811197E-05
(PID.TID 0000.0001) %MON vort_a_sd                    =   1.9250246051824E-05
(PID.TID 0000.0001) %MON vort_p_mean                  =   7.8095197769435E-05
(PID.TID 0000.0001) %MON vort_p_sd                    =   5.6519436963572E-05
(PID.TID 0000.0001) %MON surfExpan_theta_mean         =   5.2832491009047E-06
(PID.TID 0000.0001) %MON surfExpan_salt_mean          =  -4.4131989135285E-07
(PID.TID 0000.0001) // =======================================================
(PID.TID 0000.0001) // End MONITOR dynamic field statistics
(PID.TID 0000.0001) // =======================================================
 EXTERNAL_FIELDS_LOAD,         5 : iP,iLd,i0,i1=    1    2    1    2 ; Wght=  0.5833333333  0.4166666667
 cg2d: Sum(rhs),rhsMax =   9.76996261670138E-15  6.19359043160668E-01
(PID.TID 0000.0001)                    cg2d_init_res =    2.56621887143122E-01
(PID.TID 0000.0001)                       cg2d_iters =    46
(PID.TID 0000.0001)                         cg2d_res =    7.84062265880219E-14
(PID.TID 0000.0001) // =======================================================
(PID.TID 0000.0001) // Begin MONITOR dynamic field statistics
(PID.TID 0000.0001) // =======================================================
(PID.TID 0000.0001) %MON time_tsnumber                =                     6
(PID.TID 0000.0001) %MON time_secondsf                =   4.3200000000000E+04
(PID.TID 0000.0001) %MON dynstat_eta_max              =   1.8210537366033E-01
(PID.TID 0000.0001) %MON dynstat_eta_min              =  -2.7528533379617E-01
(PID.TID 0000.0001) %MON dynstat_eta_mean             =  -1.1029935733303E-16
(PID.TID 0000.0001) %MON dynstat_eta_sd               =   9.9209893642068E-02
(PID.TID 0000.0001) %MON dynstat_eta_del2             =   1.3278033471491E-03
(PID.TID 0000.0001) %MON dynstat_uvel_max             =   1.5241781359987E-01
(PID.TID 0000.0001) %MON dynstat_uvel_min             =  -1.4452669460888E-01
(PID.TID 0000.0001) %MON dynstat_uvel_mean            =   3.5931254945062E-04
(PID.TID 0000.0001) %MON dynstat_uvel_sd              =   6.2212672910390E-03
(PID.TID 0000.0001) %MON dynstat_uvel_del2            =   1.9672155630478E-04
(PID.TID 0000.0001) %MON dynstat_vvel_max             =   4.2078688585388E-02
(PID.TID 0000.0001) %MON dynstat_vvel_min             =  -1.0790351551422E-01
(PID.TID 0000.0001) %MON dynstat_vvel_mean            =  -6.2505229455655E-04
(PID.TID 0000.0001) %MON dynstat_vvel_sd              =   6.0945745206959E-03
(PID.TID 0000.0001) %MON dynstat_vvel_del2            =   1.7952958958237E-04
(PID.TID 0000.0001) %MON dynstat_wvel_max             =   1.1634293843656E-04
(PID.TID 0000.0001) %MON dynstat_wvel_min             =  -1.3958047859336E-04
(PID.TID 0000.0001) %MON dynstat_wvel_mean            =   5.7680784360713E-22
(PID.TID 0000.0001) %MON dynstat_wvel_sd              =   3.2892817573063E-05
(PID.TID 0000.0001) %MON dynstat_wvel_del2            =   7.3355437341760E-07
(PID.TID 0000.0001) %MON dynstat_theta_max            =   2.6075053742179E+01
(PID.TID 0000.0001) %MON dynstat_theta_min            =   1.8064442338750E+00
(PID.TID 0000.0001) %MON dynstat_theta_mean           =   5.4784839466141E+00
(PID.TID 0000.0001) %MON dynstat_theta_sd             =   4.5926331175057E+00
(PID.TID 0000.0001) %MON dynstat_theta_del2           =   3.2049583096510E-03
(PID.TID 0000.0001) %MON dynstat_salt_max             =   3.7401496503782E+01
(PID.TID 0000.0001) %MON dynstat_salt_min             =   3.4726796356388E+01
(PID.TID 0000.0001) %MON dynstat_salt_mean            =   3.5157558850008E+01
(PID.TID 0000.0001) %MON dynstat_salt_sd              =   4.1377528228593E-01
(PID.TID 0000.0001) %MON dynstat_salt_del2            =   7.9588775132737E-04
(PID.TID 0000.0001) %MON forcing_qnet_max             =   3.2348238627116E+01
(PID.TID 0000.0001) %MON forcing_qnet_min             =  -1.7122217178345E+02
(PID.TID 0000.0001) %MON forcing_qnet_mean            =  -8.1384642763889E+01
(PID.TID 0000.0001) %MON forcing_qnet_sd              =   5.1672237657836E+01
(PID.TID 0000.0001) %MON forcing_qnet_del2            =   2.2755882059127E+00
(PID.TID 0000.0001) %MON forcing_qsw_max              =  -1.4917180760701E+02
(PID.TID 0000.0001) %MON forcing_qsw_min              =  -3.1453974914551E+02
(PID.TID 0000.0001) %MON forcing_qsw_mean             =  -2.4762479502712E+02
(PID.TID 0000.0001) %MON forcing_qsw_sd               =   4.1612615008714E+01
(PID.TID 0000.0001) %MON forcing_qsw_del2             =   1.6818002339174E+00
(PID.TID 0000.0001) %MON forcing_empmr_max            =   6.5372144933088E-05
(PID.TID 0000.0001) %MON forcing_empmr_min            =   1.2851915984961E-05
(PID.TID 0000.0001) %MON forcing_empmr_mean           =   3.8689248273659E-05
(PID.TID 0000.0001) %MON forcing_empmr_sd             =   1.1851657181705E-05
(PID.TID 0000.0001) %MON forcing_empmr_del2           =   6.4354919208906E-07
(PID.TID 0000.0001) %MON forcing_fu_max               =   2.2278839846452E-01
(PID.TID 0000.0001) %MON forcing_fu_min               =  -1.1539792083204E-01
(PID.TID 0000.0001) %MON forcing_fu_mean              =  -2.9835999170526E-02
(PID.TID 0000.0001) %MON forcing_fu_sd                =   4.0977735661570E-02
(PID.TID 0000.0001) %MON forcing_fu_del2              =   1.8503612669232E-03
(PID.TID 0000.0001) %MON forcing_fv_max               =   2.4163019843400E-02
(PID.TID 0000.0001) %MON forcing_fv_min               =  -8.3072179928422E-02
(PID.TID 0000.0001) %MON forcing_fv_mean              =  -3.6861840189104E-02
(PID.TID 0000.0001) %MON forcing_fv_sd                =   2.2388461347071E-02
(PID.TID 0000.0001) %MON forcing_fv_del2              =   7.7804852986657E-04
(PID.TID 0000.0001) %MON advcfl_uvel_max              =   3.1753297925205E-03
(PID.TID 0000.0001) %MON advcfl_vvel_max              =   1.7469935416736E-03
(PID.TID 0000.0001) %MON advcfl_wvel_max              =   5.5866048723111E-03
(PID.TID 0000.0001) %MON advcfl_W_hf_max              =   3.9140617002851E-03
(PID.TID 0000.0001) %MON pe_b_mean                    =   1.1864298801976E-05
(PID.TID 0000.0001) %MON ke_max                       =   1.0406902445665E-02
(PID.TID 0000.0001) %MON ke_mean                      =   3.3972621528270E-05
(PID.TID 0000.0001) %MON ke_vol                       =   3.6027486600263E+16
(PID.TID 0000.0001) %MON vort_r_min                   =  -4.8523314611113E-07
(PID.TID 0000.0001) %MON vort_r_max                   =   6.9543990770466E-07
(PID.TID 0000.0001) %MON vort_a_mean                  =   6.2114138811197E-05
(PID.TID 0000.0001) %MON vort_a_sd                    =   1.9250606331521E-05
(PID.TID 0000.0001) %MON vort_p_mean                  =   7.8095197769435E-05
(PID.TID 0000.0001) %MON vort_p_sd                    =   5.6520528716583E-05
(PID.TID 0000.0001) %MON surfExpan_theta_mean         =   2.9582850174452E-06
(PID.TID 0000.0001) %MON surfExpan_salt_mean          =  -7.2024324402458E-07
(PID.TID 0000.0001) // =======================================================
(PID.TID 0000.0001) // End MONITOR dynamic field statistics
(PID.TID 0000.0001) // =======================================================
 EXTERNAL_FIELDS_LOAD,         6 : iP,iLd,i0,i1=    1    2    1    2 ; Wght=  0.5000000000  0.5000000000
 cg2d: Sum(rhs),rhsMax =   2.30926389122033E-14  6.12958354532926E-01
(PID.TID 0000.0001)                    cg2d_init_res =    2.33902179285329E-01
(PID.TID 0000.0001)                       cg2d_iters =    47
(PID.TID 0000.0001)                         cg2d_res =    3.81095739389417E-14
(PID.TID 0000.0001) // =======================================================
(PID.TID 0000.0001) // Begin MONITOR dynamic field statistics
(PID.TID 0000.0001) // =======================================================
(PID.TID 0000.0001) %MON time_tsnumber                =                     7
(PID.TID 0000.0001) %MON time_secondsf                =   4.6800000000000E+04
(PID.TID 0000.0001) %MON dynstat_eta_max              =   1.7547322473512E-01
(PID.TID 0000.0001) %MON dynstat_eta_min              =  -2.6792592422426E-01
(PID.TID 0000.0001) %MON dynstat_eta_mean             =  -1.4890413239959E-16
(PID.TID 0000.0001) %MON dynstat_eta_sd               =   9.3868076868082E-02
(PID.TID 0000.0001) %MON dynstat_eta_del2             =   1.3221221118939E-03
(PID.TID 0000.0001) %MON dynstat_uvel_max             =   1.3184880178735E-01
(PID.TID 0000.0001) %MON dynstat_uvel_min             =  -1.5699823552525E-01
(PID.TID 0000.0001) %MON dynstat_uvel_mean            =   5.0646983798648E-04
(PID.TID 0000.0001) %MON dynstat_uvel_sd              =   6.9419603974812E-03
(PID.TID 0000.0001) %MON dynstat_uvel_del2            =   2.2266661279404E-04
(PID.TID 0000.0001) %MON dynstat_vvel_max             =   4.4918797005018E-02
(PID.TID 0000.0001) %MON dynstat_vvel_min             =  -1.1186632806384E-01
(PID.TID 0000.0001) %MON dynstat_vvel_mean            =  -3.8190604669483E-04
(PID.TID 0000.0001) %MON dynstat_vvel_sd              =   6.3929308356593E-03
(PID.TID 0000.0001) %MON dynstat_vvel_del2            =   1.7688770008029E-04
(PID.TID 0000.0001) %MON dynstat_wvel_max             =   1.2545443332182E-04
(PID.TID 0000.0001) %MON dynstat_wvel_min             =  -1.4961425250995E-04
(PID.TID 0000.0001) %MON dynstat_wvel_mean            =   5.9087632759755E-22
(PID.TID 0000.0001) %MON dynstat_wvel_sd              =   3.3453005710318E-05
(PID.TID 0000.0001) %MON dynstat_wvel_del2            =   7.3713499887101E-07
(PID.TID 0000.0001) %MON dynstat_theta_max            =   2.6081742708693E+01
(PID.TID 0000.0001) %MON dynstat_theta_min            =   1.8064464214090E+00
(PID.TID 0000.0001) %MON dynstat_theta_mean           =   5.4785002242040E+00
(PID.TID 0000.0001) %MON dynstat_theta_sd             =   4.5926864295909E+00
(PID.TID 0000.0001) %MON dynstat_theta_del2           =   3.2030954611412E-03
(PID.TID 0000.0001) %MON dynstat_salt_max             =   3.7401769089927E+01
(PID.TID 0000.0001) %MON dynstat_salt_min             =   3.4726797704830E+01
(PID.TID 0000.0001) %MON dynstat_salt_mean            =   3.5157560909125E+01
(PID.TID 0000.0001) %MON dynstat_salt_sd              =   4.1378044456323E-01
(PID.TID 0000.0001) %MON dynstat_salt_del2            =   7.9582344351153E-04
(PID.TID 0000.0001) %MON forcing_qnet_max             =   3.5166198730469E+01
(PID.TID 0000.0001) %MON forcing_qnet_min             =  -1.6987932586670E+02
(PID.TID 0000.0001) %MON forcing_qnet_mean            =  -8.0416445516173E+01
(PID.TID 0000.0001) %MON forcing_qnet_sd              =   5.1664471428311E+01
(PID.TID 0000.0001) %MON forcing_qnet_del2            =   2.2542156039565E+00
(PID.TID 0000.0001) %MON forcing_qsw_max              =  -1.4832495880127E+02
(PID.TID 0000.0001) %MON forcing_qsw_min              =  -3.1513458251953E+02
(PID.TID 0000.0001) %MON forcing_qsw_mean             =  -2.4790439471893E+02
(PID.TID 0000.0001) %MON forcing_qsw_sd               =   4.1761053123375E+01
(PID.TID 0000.0001) %MON forcing_qsw_del2             =   1.6745282730970E+00
(PID.TID 0000.0001) %MON forcing_empmr_max            =   6.5844899382483E-05
(PID.TID 0000.0001) %MON forcing_empmr_min            =   1.3001628403142E-05
(PID.TID 0000.0001) %MON forcing_empmr_mean           =   3.9078607821765E-05
(PID.TID 0000.0001) %MON forcing_empmr_sd             =   1.1829142672036E-05
(PID.TID 0000.0001) %MON forcing_empmr_del2           =   6.4163473933741E-07
(PID.TID 0000.0001) %MON forcing_fu_max               =   2.3125195503235E-01
(PID.TID 0000.0001) %MON forcing_fu_min               =  -1.1534011736512E-01
(PID.TID 0000.0001) %MON forcing_fu_mean              =  -3.0105201986865E-02
(PID.TID 0000.0001) %MON forcing_fu_sd                =   4.1209416590200E-02
(PID.TID 0000.0001) %MON forcing_fu_del2              =   1.8701981194914E-03
(PID.TID 0000.0001) %MON forcing_fv_max               =   2.5649426504970E-02
(PID.TID 0000.0001) %MON forcing_fv_min               =  -8.3588618785143E-02
(PID.TID 0000.0001) %MON forcing_fv_mean              =  -3.7181349883485E-02
(PID.TID 0000.0001) %MON forcing_fv_sd                =   2.2382851813023E-02
(PID.TID 0000.0001) %MON forcing_fv_del2              =   7.7789255697625E-04
(PID.TID 0000.0001) %MON advcfl_uvel_max              =   2.7468142898479E-03
(PID.TID 0000.0001) %MON advcfl_vvel_max              =   1.8111527852168E-03
(PID.TID 0000.0001) %MON advcfl_wvel_max              =   5.5459082669869E-03
(PID.TID 0000.0001) %MON advcfl_W_hf_max              =   4.7904486987177E-03
(PID.TID 0000.0001) %MON pe_b_mean                    =   1.0621062106119E-05
(PID.TID 0000.0001) %MON ke_max                       =   1.2264031057188E-02
(PID.TID 0000.0001) %MON ke_mean                      =   3.9830548206415E-05
(PID.TID 0000.0001) %MON ke_vol                       =   3.6027486600263E+16
(PID.TID 0000.0001) %MON vort_r_min                   =  -3.8438534574964E-07
(PID.TID 0000.0001) %MON vort_r_max                   =   6.8523301599027E-07
(PID.TID 0000.0001) %MON vort_a_mean                  =   6.2114138811197E-05
(PID.TID 0000.0001) %MON vort_a_sd                    =   1.9250727748559E-05
(PID.TID 0000.0001) %MON vort_p_mean                  =   7.8095197769435E-05
(PID.TID 0000.0001) %MON vort_p_sd                    =   5.6521093635679E-05
(PID.TID 0000.0001) %MON surfExpan_theta_mean         =   6.7723323157104E-07
(PID.TID 0000.0001) %MON surfExpan_salt_mean          =  -6.7290921859761E-07
(PID.TID 0000.0001) // =======================================================
(PID.TID 0000.0001) // End MONITOR dynamic field statistics
(PID.TID 0000.0001) // =======================================================
 Computing Diagnostic #    179  KPPviscA     Counter:       1   Parms: SM P    LR      
 Computing Diagnostic #    180  KPPdiffS     Counter:       1   Parms: SM P    LR      
 Computing Diagnostic #    181  KPPdiffT     Counter:       1   Parms: SM P    LR      
 Computing Diagnostic #    182  KPPghatK     Counter:       1   Parms: SM P    LR      
 Computing Diagnostic #    183  KPPhbl       Counter:       1   Parms: SM P     1      
 Computing Diagnostic #    184  KPPfrac      Counter:       1   Parms: SM P     1      
 Computing Diagnostic #     73  MXLDEPTH     Counter:       1   Parms: SM      M1      
 EXTERNAL_FIELDS_LOAD,         7 : iP,iLd,i0,i1=    1    2    1    2 ; Wght=  0.4166666667  0.5833333333
 cg2d: Sum(rhs),rhsMax =   2.39808173319034E-14  6.01697609291081E-01
(PID.TID 0000.0001)                    cg2d_init_res =    1.75477855904955E-01
(PID.TID 0000.0001)                       cg2d_iters =    47
(PID.TID 0000.0001)                         cg2d_res =    3.47643536086876E-14
(PID.TID 0000.0001) // =======================================================
(PID.TID 0000.0001) // Begin MONITOR dynamic field statistics
(PID.TID 0000.0001) // =======================================================
(PID.TID 0000.0001) %MON time_tsnumber                =                     8
(PID.TID 0000.0001) %MON time_secondsf                =   5.0400000000000E+04
(PID.TID 0000.0001) %MON dynstat_eta_max              =   1.6784984672823E-01
(PID.TID 0000.0001) %MON dynstat_eta_min              =  -2.5646430014034E-01
(PID.TID 0000.0001) %MON dynstat_eta_mean             =  -1.4338916453294E-16
(PID.TID 0000.0001) %MON dynstat_eta_sd               =   8.8250060978873E-02
(PID.TID 0000.0001) %MON dynstat_eta_del2             =   1.3188886421464E-03
(PID.TID 0000.0001) %MON dynstat_uvel_max             =   1.0988385927147E-01
(PID.TID 0000.0001) %MON dynstat_uvel_min             =  -1.6778978775630E-01
(PID.TID 0000.0001) %MON dynstat_uvel_mean            =   4.6277493450310E-04
(PID.TID 0000.0001) %MON dynstat_uvel_sd              =   7.5524985757042E-03
(PID.TID 0000.0001) %MON dynstat_uvel_del2            =   2.4616846623619E-04
(PID.TID 0000.0001) %MON dynstat_vvel_max             =   4.9770970250427E-02
(PID.TID 0000.0001) %MON dynstat_vvel_min             =  -1.1601674644951E-01
(PID.TID 0000.0001) %MON dynstat_vvel_mean            =  -8.5819660432523E-05
(PID.TID 0000.0001) %MON dynstat_vvel_sd              =   6.5601612615556E-03
(PID.TID 0000.0001) %MON dynstat_vvel_del2            =   1.6891464948232E-04
(PID.TID 0000.0001) %MON dynstat_wvel_max             =   1.3399241757913E-04
(PID.TID 0000.0001) %MON dynstat_wvel_min             =  -1.5482279785061E-04
(PID.TID 0000.0001) %MON dynstat_wvel_mean            =   4.5019148769337E-22
(PID.TID 0000.0001) %MON dynstat_wvel_sd              =   3.3219632104631E-05
(PID.TID 0000.0001) %MON dynstat_wvel_del2            =   7.2135269013199E-07
(PID.TID 0000.0001) %MON dynstat_theta_max            =   2.6088477412505E+01
(PID.TID 0000.0001) %MON dynstat_theta_min            =   1.8064486101332E+00
(PID.TID 0000.0001) %MON dynstat_theta_mean           =   5.4785182841079E+00
(PID.TID 0000.0001) %MON dynstat_theta_sd             =   4.5927463641919E+00
(PID.TID 0000.0001) %MON dynstat_theta_del2           =   3.2018176760509E-03
(PID.TID 0000.0001) %MON dynstat_salt_max             =   3.7402050014616E+01
(PID.TID 0000.0001) %MON dynstat_salt_min             =   3.4726798637146E+01
(PID.TID 0000.0001) %MON dynstat_salt_mean            =   3.5157562763524E+01
(PID.TID 0000.0001) %MON dynstat_salt_sd              =   4.1378513021965E-01
(PID.TID 0000.0001) %MON dynstat_salt_del2            =   7.9578454052936E-04
(PID.TID 0000.0001) %MON forcing_qnet_max             =   3.7984158833822E+01
(PID.TID 0000.0001) %MON forcing_qnet_min             =  -1.6853647994995E+02
(PID.TID 0000.0001) %MON forcing_qnet_mean            =  -7.9448248268458E+01
(PID.TID 0000.0001) %MON forcing_qnet_sd              =   5.1687193850144E+01
(PID.TID 0000.0001) %MON forcing_qnet_del2            =   2.2348877533250E+00
(PID.TID 0000.0001) %MON forcing_qsw_max              =  -1.4661845270793E+02
(PID.TID 0000.0001) %MON forcing_qsw_min              =  -3.1572941589355E+02
(PID.TID 0000.0001) %MON forcing_qsw_mean             =  -2.4818399441075E+02
(PID.TID 0000.0001) %MON forcing_qsw_sd               =   4.1931857501445E+01
(PID.TID 0000.0001) %MON forcing_qsw_del2             =   1.6689990929453E+00
(PID.TID 0000.0001) %MON forcing_empmr_max            =   6.6317653831878E-05
(PID.TID 0000.0001) %MON forcing_empmr_min            =   1.3151340821323E-05
(PID.TID 0000.0001) %MON forcing_empmr_mean           =   3.9467967369872E-05
(PID.TID 0000.0001) %MON forcing_empmr_sd             =   1.1817053741946E-05
(PID.TID 0000.0001) %MON forcing_empmr_del2           =   6.4034814585414E-07
(PID.TID 0000.0001) %MON forcing_fu_max               =   2.3971551160018E-01
(PID.TID 0000.0001) %MON forcing_fu_min               =  -1.1623985506594E-01
(PID.TID 0000.0001) %MON forcing_fu_mean              =  -3.0374404803203E-02
(PID.TID 0000.0001) %MON forcing_fu_sd                =   4.1470869830938E-02
(PID.TID 0000.0001) %MON forcing_fu_del2              =   1.8931493931643E-03
(PID.TID 0000.0001) %MON forcing_fv_max               =   2.7135833166540E-02
(PID.TID 0000.0001) %MON forcing_fv_min               =  -8.4105057641864E-02
(PID.TID 0000.0001) %MON forcing_fv_mean              =  -3.7500859577866E-02
(PID.TID 0000.0001) %MON forcing_fv_sd                =   2.2432194307342E-02
(PID.TID 0000.0001) %MON forcing_fv_del2              =   7.8225659504887E-04
(PID.TID 0000.0001) %MON advcfl_uvel_max              =   2.8124023474990E-03
(PID.TID 0000.0001) %MON advcfl_vvel_max              =   1.8783494291858E-03
(PID.TID 0000.0001) %MON advcfl_wvel_max              =   4.9608150013362E-03
(PID.TID 0000.0001) %MON advcfl_W_hf_max              =   5.1265998024636E-03
(PID.TID 0000.0001) %MON pe_b_mean                    =   9.3877634112004E-06
(PID.TID 0000.0001) %MON ke_max                       =   1.4040938153551E-02
(PID.TID 0000.0001) %MON ke_mean                      =   4.4686782532463E-05
(PID.TID 0000.0001) %MON ke_vol                       =   3.6027486600263E+16
(PID.TID 0000.0001) %MON vort_r_min                   =  -3.2330516363277E-07
(PID.TID 0000.0001) %MON vort_r_max                   =   7.2917995920449E-07
(PID.TID 0000.0001) %MON vort_a_mean                  =   6.2114138811197E-05
(PID.TID 0000.0001) %MON vort_a_sd                    =   1.9250687355061E-05
(PID.TID 0000.0001) %MON vort_p_mean                  =   7.8095197769435E-05
(PID.TID 0000.0001) %MON vort_p_sd                    =   5.6521191059499E-05
(PID.TID 0000.0001) %MON surfExpan_theta_mean         =  -1.2388003450157E-06
(PID.TID 0000.0001) %MON surfExpan_salt_mean          =  -4.2433196848570E-07
(PID.TID 0000.0001) // =======================================================
(PID.TID 0000.0001) // End MONITOR dynamic field statistics
(PID.TID 0000.0001) // =======================================================
 EXTERNAL_FIELDS_LOAD,         8 : iP,iLd,i0,i1=    1    2    1    2 ; Wght=  0.3333333333  0.6666666667
 cg2d: Sum(rhs),rhsMax =   2.57571741713036E-14  5.89264757886448E-01
(PID.TID 0000.0001)                    cg2d_init_res =    1.28274249426450E-01
(PID.TID 0000.0001)                       cg2d_iters =    46
(PID.TID 0000.0001)                         cg2d_res =    5.96529870929196E-14
(PID.TID 0000.0001) // =======================================================
(PID.TID 0000.0001) // Begin MONITOR dynamic field statistics
(PID.TID 0000.0001) // =======================================================
(PID.TID 0000.0001) %MON time_tsnumber                =                     9
(PID.TID 0000.0001) %MON time_secondsf                =   5.4000000000000E+04
(PID.TID 0000.0001) %MON dynstat_eta_max              =   1.6095330758230E-01
(PID.TID 0000.0001) %MON dynstat_eta_min              =  -2.4421348590019E-01
(PID.TID 0000.0001) %MON dynstat_eta_mean             =  -1.4890413239959E-16
(PID.TID 0000.0001) %MON dynstat_eta_sd               =   8.3033070544505E-02
(PID.TID 0000.0001) %MON dynstat_eta_del2             =   1.3180936821957E-03
(PID.TID 0000.0001) %MON dynstat_uvel_max             =   8.7666664399552E-02
(PID.TID 0000.0001) %MON dynstat_uvel_min             =  -1.7667076309772E-01
(PID.TID 0000.0001) %MON dynstat_uvel_mean            =   3.3332301643057E-04
(PID.TID 0000.0001) %MON dynstat_uvel_sd              =   8.0486257228103E-03
(PID.TID 0000.0001) %MON dynstat_uvel_del2            =   2.6656484440713E-04
(PID.TID 0000.0001) %MON dynstat_vvel_max             =   5.7516971053191E-02
(PID.TID 0000.0001) %MON dynstat_vvel_min             =  -1.1744518461396E-01
(PID.TID 0000.0001) %MON dynstat_vvel_mean            =   1.6332992336147E-04
(PID.TID 0000.0001) %MON dynstat_vvel_sd              =   6.6308586031135E-03
(PID.TID 0000.0001) %MON dynstat_vvel_del2            =   1.5891292811349E-04
(PID.TID 0000.0001) %MON dynstat_wvel_max             =   1.4001444264135E-04
(PID.TID 0000.0001) %MON dynstat_wvel_min             =  -1.5523199615850E-04
(PID.TID 0000.0001) %MON dynstat_wvel_mean            =   5.6273935961672E-22
(PID.TID 0000.0001) %MON dynstat_wvel_sd              =   3.2527010260095E-05
(PID.TID 0000.0001) %MON dynstat_wvel_del2            =   6.9516558640526E-07
(PID.TID 0000.0001) %MON dynstat_theta_max            =   2.6095282809169E+01
(PID.TID 0000.0001) %MON dynstat_theta_min            =   1.8064507120708E+00
(PID.TID 0000.0001) %MON dynstat_theta_mean           =   5.4785376332947E+00
(PID.TID 0000.0001) %MON dynstat_theta_sd             =   4.5928111895798E+00
(PID.TID 0000.0001) %MON dynstat_theta_del2           =   3.2012065514728E-03
(PID.TID 0000.0001) %MON dynstat_salt_max             =   3.7402343836813E+01
(PID.TID 0000.0001) %MON dynstat_salt_min             =   3.4726799519979E+01
(PID.TID 0000.0001) %MON dynstat_salt_mean            =   3.5157564301570E+01
(PID.TID 0000.0001) %MON dynstat_salt_sd              =   4.1378900765272E-01
(PID.TID 0000.0001) %MON dynstat_salt_del2            =   7.9578589965148E-04
(PID.TID 0000.0001) %MON forcing_qnet_max             =   4.0802118937174E+01
(PID.TID 0000.0001) %MON forcing_qnet_min             =  -1.6719363403320E+02
(PID.TID 0000.0001) %MON forcing_qnet_mean            =  -7.8480051020742E+01
(PID.TID 0000.0001) %MON forcing_qnet_sd              =   5.1740364754944E+01
(PID.TID 0000.0001) %MON forcing_qnet_del2            =   2.2176581173417E+00
(PID.TID 0000.0001) %MON forcing_qsw_max              =  -1.4420261128743E+02
(PID.TID 0000.0001) %MON forcing_qsw_min              =  -3.1632424926758E+02
(PID.TID 0000.0001) %MON forcing_qsw_mean             =  -2.4846359410256E+02
(PID.TID 0000.0001) %MON forcing_qsw_sd               =   4.2124756076541E+01
(PID.TID 0000.0001) %MON forcing_qsw_del2             =   1.6652300535835E+00
(PID.TID 0000.0001) %MON forcing_empmr_max            =   6.6790408281274E-05
(PID.TID 0000.0001) %MON forcing_empmr_min            =   1.3301053239504E-05
(PID.TID 0000.0001) %MON forcing_empmr_mean           =   3.9857326917978E-05
(PID.TID 0000.0001) %MON forcing_empmr_sd             =   1.1815422392223E-05
(PID.TID 0000.0001) %MON forcing_empmr_del2           =   6.3969320002736E-07
(PID.TID 0000.0001) %MON forcing_fu_max               =   2.4817906816800E-01
(PID.TID 0000.0001) %MON forcing_fu_min               =  -1.1713959276676E-01
(PID.TID 0000.0001) %MON forcing_fu_mean              =  -3.0643607619542E-02
(PID.TID 0000.0001) %MON forcing_fu_sd                =   4.1761536207848E-02
(PID.TID 0000.0001) %MON forcing_fu_del2              =   1.9191033516194E-03
(PID.TID 0000.0001) %MON forcing_fv_max               =   2.8622239828110E-02
(PID.TID 0000.0001) %MON forcing_fv_min               =  -8.4621496498585E-02
(PID.TID 0000.0001) %MON forcing_fv_mean              =  -3.7820369272247E-02
(PID.TID 0000.0001) %MON forcing_fv_sd                =   2.2536127883136E-02
(PID.TID 0000.0001) %MON forcing_fv_del2              =   7.9106584158509E-04
(PID.TID 0000.0001) %MON advcfl_uvel_max              =   2.9612604885832E-03
(PID.TID 0000.0001) %MON advcfl_vvel_max              =   1.9014763146824E-03
(PID.TID 0000.0001) %MON advcfl_wvel_max              =   4.8927292282931E-03
(PID.TID 0000.0001) %MON advcfl_W_hf_max              =   5.0994552648292E-03
(PID.TID 0000.0001) %MON pe_b_mean                    =   8.3106368321510E-06
(PID.TID 0000.0001) %MON ke_max                       =   1.5662868962762E-02
(PID.TID 0000.0001) %MON ke_mean                      =   4.8543666893788E-05
(PID.TID 0000.0001) %MON ke_vol                       =   3.6027486600263E+16
(PID.TID 0000.0001) %MON vort_r_min                   =  -3.3824896846379E-07
(PID.TID 0000.0001) %MON vort_r_max                   =   7.6482668697417E-07
(PID.TID 0000.0001) %MON vort_a_mean                  =   6.2114138811197E-05
(PID.TID 0000.0001) %MON vort_a_sd                    =   1.9250574547981E-05
(PID.TID 0000.0001) %MON vort_p_mean                  =   7.8095197769435E-05
(PID.TID 0000.0001) %MON vort_p_sd                    =   5.6520967256488E-05
(PID.TID 0000.0001) %MON surfExpan_theta_mean         =  -2.4926295829788E-06
(PID.TID 0000.0001) %MON surfExpan_salt_mean          =  -1.2718109038657E-07
(PID.TID 0000.0001) // =======================================================
(PID.TID 0000.0001) // End MONITOR dynamic field statistics
(PID.TID 0000.0001) // =======================================================
 EXTERNAL_FIELDS_LOAD,         9 : iP,iLd,i0,i1=    1    2    1    2 ; Wght=  0.2500000000  0.7500000000
 cg2d: Sum(rhs),rhsMax =   3.10862446895044E-14  5.77773739897903E-01
(PID.TID 0000.0001)                    cg2d_init_res =    1.14550660306058E-01
(PID.TID 0000.0001)                       cg2d_iters =    46
(PID.TID 0000.0001)                         cg2d_res =    6.79059481558781E-14
(PID.TID 0000.0001) // =======================================================
(PID.TID 0000.0001) // Begin MONITOR dynamic field statistics
(PID.TID 0000.0001) // =======================================================
(PID.TID 0000.0001) %MON time_tsnumber                =                    10
(PID.TID 0000.0001) %MON time_secondsf                =   5.7600000000000E+04
(PID.TID 0000.0001) %MON dynstat_eta_max              =   1.5574505629906E-01
(PID.TID 0000.0001) %MON dynstat_eta_min              =  -2.3313889634656E-01
(PID.TID 0000.0001) %MON dynstat_eta_mean             =  -1.8199393959950E-16
(PID.TID 0000.0001) %MON dynstat_eta_sd               =   7.8802615665601E-02
(PID.TID 0000.0001) %MON dynstat_eta_del2             =   1.3205091180705E-03
(PID.TID 0000.0001) %MON dynstat_uvel_max             =   6.6154607403371E-02
(PID.TID 0000.0001) %MON dynstat_uvel_min             =  -1.8387820463824E-01
(PID.TID 0000.0001) %MON dynstat_uvel_mean            =   1.9456192936111E-04
(PID.TID 0000.0001) %MON dynstat_uvel_sd              =   8.4363813842071E-03
(PID.TID 0000.0001) %MON dynstat_uvel_del2            =   2.8201785340214E-04
(PID.TID 0000.0001) %MON dynstat_vvel_max             =   6.3545498755125E-02
(PID.TID 0000.0001) %MON dynstat_vvel_min             =  -1.2023861879007E-01
(PID.TID 0000.0001) %MON dynstat_vvel_mean            =   3.0244259436234E-04
(PID.TID 0000.0001) %MON dynstat_vvel_sd              =   6.6319611230002E-03
(PID.TID 0000.0001) %MON dynstat_vvel_del2            =   1.5061960524845E-04
(PID.TID 0000.0001) %MON dynstat_wvel_max             =   1.4352739343808E-04
(PID.TID 0000.0001) %MON dynstat_wvel_min             =  -1.5102344199195E-04
(PID.TID 0000.0001) %MON dynstat_wvel_mean            =   7.8783510346340E-22
(PID.TID 0000.0001) %MON dynstat_wvel_sd              =   3.1650417196385E-05
(PID.TID 0000.0001) %MON dynstat_wvel_del2            =   6.6606482908125E-07
(PID.TID 0000.0001) %MON dynstat_theta_max            =   2.6102128066196E+01
(PID.TID 0000.0001) %MON dynstat_theta_min            =   1.8064527133464E+00
(PID.TID 0000.0001) %MON dynstat_theta_mean           =   5.4785575286753E+00
(PID.TID 0000.0001) %MON dynstat_theta_sd             =   4.5928781634984E+00
(PID.TID 0000.0001) %MON dynstat_theta_del2           =   3.2013730466584E-03
(PID.TID 0000.0001) %MON dynstat_salt_max             =   3.7402653709167E+01
(PID.TID 0000.0001) %MON dynstat_salt_min             =   3.4726800626187E+01
(PID.TID 0000.0001) %MON dynstat_salt_mean            =   3.5157565561372E+01
(PID.TID 0000.0001) %MON dynstat_salt_sd              =   4.1379214148293E-01
(PID.TID 0000.0001) %MON dynstat_salt_del2            =   7.9585058380939E-04
(PID.TID 0000.0001) %MON forcing_qnet_max             =   4.3620079040527E+01
(PID.TID 0000.0001) %MON forcing_qnet_min             =  -1.6585078811646E+02
(PID.TID 0000.0001) %MON forcing_qnet_mean            =  -7.7511853773026E+01
(PID.TID 0000.0001) %MON forcing_qnet_sd              =   5.1823890423082E+01
(PID.TID 0000.0001) %MON forcing_qnet_del2            =   2.2025759363685E+00
(PID.TID 0000.0001) %MON forcing_qsw_max              =  -1.4178676986694E+02
(PID.TID 0000.0001) %MON forcing_qsw_min              =  -3.1691908264160E+02
(PID.TID 0000.0001) %MON forcing_qsw_mean             =  -2.4874319379438E+02
(PID.TID 0000.0001) %MON forcing_qsw_sd               =   4.2339446866167E+01
(PID.TID 0000.0001) %MON forcing_qsw_del2             =   1.6632331209777E+00
(PID.TID 0000.0001) %MON forcing_empmr_max            =   6.7263162730669E-05
(PID.TID 0000.0001) %MON forcing_empmr_min            =   1.3450765657685E-05
(PID.TID 0000.0001) %MON forcing_empmr_mean           =   4.0246686466085E-05
(PID.TID 0000.0001) %MON forcing_empmr_sd             =   1.1824252951252E-05
(PID.TID 0000.0001) %MON forcing_empmr_del2           =   6.3967184205012E-07
(PID.TID 0000.0001) %MON forcing_fu_max               =   2.5664262473583E-01
(PID.TID 0000.0001) %MON forcing_fu_min               =  -1.1803933046758E-01
(PID.TID 0000.0001) %MON forcing_fu_mean              =  -3.0912810435881E-02
(PID.TID 0000.0001) %MON forcing_fu_sd                =   4.2080810370275E-02
(PID.TID 0000.0001) %MON forcing_fu_del2              =   1.9479399770591E-03
(PID.TID 0000.0001) %MON forcing_fv_max               =   3.0108646489680E-02
(PID.TID 0000.0001) %MON forcing_fv_min               =  -8.6464884690940E-02
(PID.TID 0000.0001) %MON forcing_fv_mean              =  -3.8139878966627E-02
(PID.TID 0000.0001) %MON forcing_fv_sd                =   2.2693902503798E-02
(PID.TID 0000.0001) %MON forcing_fv_del2              =   8.0417422606976E-04
(PID.TID 0000.0001) %MON advcfl_uvel_max              =   3.1130754332061E-03
(PID.TID 0000.0001) %MON advcfl_vvel_max              =   1.9467029362757E-03
(PID.TID 0000.0001) %MON advcfl_wvel_max              =   4.5550179335955E-03
(PID.TID 0000.0001) %MON advcfl_W_hf_max              =   5.2463739659793E-03
(PID.TID 0000.0001) %MON pe_b_mean                    =   7.4853717525091E-06
(PID.TID 0000.0001) %MON ke_max                       =   1.7028852067126E-02
(PID.TID 0000.0001) %MON ke_mean                      =   5.1423780524620E-05
(PID.TID 0000.0001) %MON ke_vol                       =   3.6027486600263E+16
(PID.TID 0000.0001) %MON vort_r_min                   =  -3.4562647913328E-07
(PID.TID 0000.0001) %MON vort_r_max                   =   7.9160003721696E-07
(PID.TID 0000.0001) %MON vort_a_mean                  =   6.2114138811197E-05
(PID.TID 0000.0001) %MON vort_a_sd                    =   1.9250454276786E-05
(PID.TID 0000.0001) %MON vort_p_mean                  =   7.8095197769435E-05
(PID.TID 0000.0001) %MON vort_p_sd                    =   5.6520583768185E-05
(PID.TID 0000.0001) %MON surfExpan_theta_mean         =  -2.9337251779296E-06
(PID.TID 0000.0001) %MON surfExpan_salt_mean          =   9.7821718685377E-08
(PID.TID 0000.0001) // =======================================================
(PID.TID 0000.0001) // End MONITOR dynamic field statistics
(PID.TID 0000.0001) // =======================================================
 EXTERNAL_FIELDS_LOAD,        10 : iP,iLd,i0,i1=    1    2    1    2 ; Wght=  0.1666666667  0.8333333333
 cg2d: Sum(rhs),rhsMax =   3.73034936274053E-14  5.68106285037932E-01
(PID.TID 0000.0001)                    cg2d_init_res =    1.08463908664191E-01
(PID.TID 0000.0001)                       cg2d_iters =    45
(PID.TID 0000.0001)                         cg2d_res =    9.93593110296982E-14
(PID.TID 0000.0001) // =======================================================
(PID.TID 0000.0001) // Begin MONITOR dynamic field statistics
(PID.TID 0000.0001) // =======================================================
(PID.TID 0000.0001) %MON time_tsnumber                =                    11
(PID.TID 0000.0001) %MON time_secondsf                =   6.1200000000000E+04
(PID.TID 0000.0001) %MON dynstat_eta_max              =   1.5251286780298E-01
(PID.TID 0000.0001) %MON dynstat_eta_min              =  -2.2426112110590E-01
(PID.TID 0000.0001) %MON dynstat_eta_mean             =  -2.7299090939925E-16
(PID.TID 0000.0001) %MON dynstat_eta_sd               =   7.5976108019602E-02
(PID.TID 0000.0001) %MON dynstat_eta_del2             =   1.3269213358712E-03
(PID.TID 0000.0001) %MON dynstat_uvel_max             =   4.8277522436872E-02
(PID.TID 0000.0001) %MON dynstat_uvel_min             =  -1.9355245788570E-01
(PID.TID 0000.0001) %MON dynstat_uvel_mean            =   8.3950972701849E-05
(PID.TID 0000.0001) %MON dynstat_uvel_sd              =   8.7208008416864E-03
(PID.TID 0000.0001) %MON dynstat_uvel_del2            =   2.9116567088447E-04
(PID.TID 0000.0001) %MON dynstat_vvel_max             =   6.7656053580439E-02
(PID.TID 0000.0001) %MON dynstat_vvel_min             =  -1.2583057243574E-01
(PID.TID 0000.0001) %MON dynstat_vvel_mean            =   3.1959895394533E-04
(PID.TID 0000.0001) %MON dynstat_vvel_sd              =   6.5821415637462E-03
(PID.TID 0000.0001) %MON dynstat_vvel_del2            =   1.4699037871166E-04
(PID.TID 0000.0001) %MON dynstat_wvel_max             =   1.4455678443146E-04
(PID.TID 0000.0001) %MON dynstat_wvel_min             =  -1.4254530403287E-04
(PID.TID 0000.0001) %MON dynstat_wvel_mean            =   1.1254787192334E-22
(PID.TID 0000.0001) %MON dynstat_wvel_sd              =   3.0765857863724E-05
(PID.TID 0000.0001) %MON dynstat_wvel_del2            =   6.3849566958267E-07
(PID.TID 0000.0001) %MON dynstat_theta_max            =   2.6108954677204E+01
(PID.TID 0000.0001) %MON dynstat_theta_min            =   1.8064546426268E+00
(PID.TID 0000.0001) %MON dynstat_theta_mean           =   5.4785771716579E+00
(PID.TID 0000.0001) %MON dynstat_theta_sd             =   4.5929442816413E+00
(PID.TID 0000.0001) %MON dynstat_theta_del2           =   3.2024112897922E-03
(PID.TID 0000.0001) %MON dynstat_salt_max             =   3.7402980684287E+01
(PID.TID 0000.0001) %MON dynstat_salt_min             =   3.4726802201339E+01
(PID.TID 0000.0001) %MON dynstat_salt_mean            =   3.5157566670905E+01
(PID.TID 0000.0001) %MON dynstat_salt_sd              =   4.1379484559999E-01
(PID.TID 0000.0001) %MON dynstat_salt_del2            =   7.9598633228204E-04
(PID.TID 0000.0001) %MON forcing_qnet_max             =   4.6438039143880E+01
(PID.TID 0000.0001) %MON forcing_qnet_min             =  -1.6450794219971E+02
(PID.TID 0000.0001) %MON forcing_qnet_mean            =  -7.6543656525311E+01
(PID.TID 0000.0001) %MON forcing_qnet_sd              =   5.1937624405908E+01
(PID.TID 0000.0001) %MON forcing_qnet_del2            =   2.1896855847669E+00
(PID.TID 0000.0001) %MON forcing_qsw_max              =  -1.3937092844645E+02
(PID.TID 0000.0001) %MON forcing_qsw_min              =  -3.1751391601563E+02
(PID.TID 0000.0001) %MON forcing_qsw_mean             =  -2.4902279348619E+02
(PID.TID 0000.0001) %MON forcing_qsw_sd               =   4.2575600204769E+01
(PID.TID 0000.0001) %MON forcing_qsw_del2             =   1.6630146789283E+00
(PID.TID 0000.0001) %MON forcing_empmr_max            =   6.7735917180064E-05
(PID.TID 0000.0001) %MON forcing_empmr_min            =   1.3600478075867E-05
(PID.TID 0000.0001) %MON forcing_empmr_mean           =   4.0636046014191E-05
(PID.TID 0000.0001) %MON forcing_empmr_sd             =   1.1843522017782E-05
(PID.TID 0000.0001) %MON forcing_empmr_del2           =   6.4028413532627E-07
(PID.TID 0000.0001) %MON forcing_fu_max               =   2.6510618130366E-01
(PID.TID 0000.0001) %MON forcing_fu_min               =  -1.1893906816840E-01
(PID.TID 0000.0001) %MON forcing_fu_mean              =  -3.1182013252220E-02
(PID.TID 0000.0001) %MON forcing_fu_sd                =   4.2428046496080E-02
(PID.TID 0000.0001) %MON forcing_fu_del2              =   1.9795332947244E-03
(PID.TID 0000.0001) %MON forcing_fv_max               =   3.1595053151250E-02
(PID.TID 0000.0001) %MON forcing_fv_min               =  -9.0216387684147E-02
(PID.TID 0000.0001) %MON forcing_fv_mean              =  -3.8459388661008E-02
(PID.TID 0000.0001) %MON forcing_fv_sd                =   2.2904405561001E-02
(PID.TID 0000.0001) %MON forcing_fv_del2              =   8.2137594373950E-04
(PID.TID 0000.0001) %MON advcfl_uvel_max              =   3.2768614576484E-03
(PID.TID 0000.0001) %MON advcfl_vvel_max              =   2.0372385120423E-03
(PID.TID 0000.0001) %MON advcfl_wvel_max              =   4.1968366987108E-03
(PID.TID 0000.0001) %MON advcfl_W_hf_max              =   5.2460458733885E-03
(PID.TID 0000.0001) %MON pe_b_mean                    =   6.9580283299933E-06
(PID.TID 0000.0001) %MON ke_max                       =   1.8030067062450E-02
(PID.TID 0000.0001) %MON ke_mean                      =   5.3322685485776E-05
(PID.TID 0000.0001) %MON ke_vol                       =   3.6027486600263E+16
(PID.TID 0000.0001) %MON vort_r_min                   =  -3.5192766351470E-07
(PID.TID 0000.0001) %MON vort_r_max                   =   8.0824117782947E-07
(PID.TID 0000.0001) %MON vort_a_mean                  =   6.2114138811197E-05
(PID.TID 0000.0001) %MON vort_a_sd                    =   1.9250358197670E-05
(PID.TID 0000.0001) %MON vort_p_mean                  =   7.8095197769435E-05
(PID.TID 0000.0001) %MON vort_p_sd                    =   5.6520180164326E-05
(PID.TID 0000.0001) %MON surfExpan_theta_mean         =  -2.6249188214439E-06
(PID.TID 0000.0001) %MON surfExpan_salt_mean          =   1.9770841701730E-07
(PID.TID 0000.0001) // =======================================================
(PID.TID 0000.0001) // End MONITOR dynamic field statistics
(PID.TID 0000.0001) // =======================================================
 EXTERNAL_FIELDS_LOAD,        11 : iP,iLd,i0,i1=    1    2    1    2 ; Wght=  0.0833333333  0.9166666667
 cg2d: Sum(rhs),rhsMax =   5.24025267623074E-14  5.60456911409225E-01
(PID.TID 0000.0001)                    cg2d_init_res =    9.22346666388017E-02
(PID.TID 0000.0001)                       cg2d_iters =    46
(PID.TID 0000.0001)                         cg2d_res =    5.90462467504670E-14
(PID.TID 0000.0001) // =======================================================
(PID.TID 0000.0001) // Begin MONITOR dynamic field statistics
(PID.TID 0000.0001) // =======================================================
(PID.TID 0000.0001) %MON time_tsnumber                =                    12
(PID.TID 0000.0001) %MON time_secondsf                =   6.4800000000000E+04
(PID.TID 0000.0001) %MON dynstat_eta_max              =   1.5104171346484E-01
(PID.TID 0000.0001) %MON dynstat_eta_min              =  -2.1801652749703E-01
(PID.TID 0000.0001) %MON dynstat_eta_mean             =  -2.8402084513255E-16
(PID.TID 0000.0001) %MON dynstat_eta_sd               =   7.4536294569173E-02
(PID.TID 0000.0001) %MON dynstat_eta_del2             =   1.3369804007892E-03
(PID.TID 0000.0001) %MON dynstat_uvel_max             =   4.1189787843630E-02
(PID.TID 0000.0001) %MON dynstat_uvel_min             =  -2.0070272085118E-01
(PID.TID 0000.0001) %MON dynstat_uvel_mean            =   9.5140895818888E-06
(PID.TID 0000.0001) %MON dynstat_uvel_sd              =   8.9047981156378E-03
(PID.TID 0000.0001) %MON dynstat_uvel_del2            =   2.9370300901182E-04
(PID.TID 0000.0001) %MON dynstat_vvel_max             =   6.9832854978268E-02
(PID.TID 0000.0001) %MON dynstat_vvel_min             =  -1.3014436860717E-01
(PID.TID 0000.0001) %MON dynstat_vvel_mean            =   2.4510241670109E-04
(PID.TID 0000.0001) %MON dynstat_vvel_sd              =   6.4927335513965E-03
(PID.TID 0000.0001) %MON dynstat_vvel_del2            =   1.4881902364287E-04
(PID.TID 0000.0001) %MON dynstat_wvel_max             =   1.4312772366788E-04
(PID.TID 0000.0001) %MON dynstat_wvel_min             =  -1.4529327261642E-04
(PID.TID 0000.0001) %MON dynstat_wvel_mean            =   2.2509574384669E-22
(PID.TID 0000.0001) %MON dynstat_wvel_sd              =   2.9935665687258E-05
(PID.TID 0000.0001) %MON dynstat_wvel_del2            =   6.1329154911628E-07
(PID.TID 0000.0001) %MON dynstat_theta_max            =   2.6115706740330E+01
(PID.TID 0000.0001) %MON dynstat_theta_min            =   1.8064565455126E+00
(PID.TID 0000.0001) %MON dynstat_theta_mean           =   5.4785959321648E+00
(PID.TID 0000.0001) %MON dynstat_theta_sd             =   4.5930071489297E+00
(PID.TID 0000.0001) %MON dynstat_theta_del2           =   3.2042910311495E-03
(PID.TID 0000.0001) %MON dynstat_salt_max             =   3.7403323356983E+01
(PID.TID 0000.0001) %MON dynstat_salt_min             =   3.4726804460255E+01
(PID.TID 0000.0001) %MON dynstat_salt_mean            =   3.5157567769063E+01
(PID.TID 0000.0001) %MON dynstat_salt_sd              =   4.1379748301877E-01
(PID.TID 0000.0001) %MON dynstat_salt_del2            =   7.9617426855405E-04
(PID.TID 0000.0001) %MON forcing_qnet_max             =   4.9255999247233E+01
(PID.TID 0000.0001) %MON forcing_qnet_min             =  -1.6316509628296E+02
(PID.TID 0000.0001) %MON forcing_qnet_mean            =  -7.5575459277595E+01
(PID.TID 0000.0001) %MON forcing_qnet_sd              =   5.2081368799327E+01
(PID.TID 0000.0001) %MON forcing_qnet_del2            =   2.1790259611605E+00
(PID.TID 0000.0001) %MON forcing_qsw_max              =  -1.3695508702596E+02
(PID.TID 0000.0001) %MON forcing_qsw_min              =  -3.1810874938965E+02
(PID.TID 0000.0001) %MON forcing_qsw_mean             =  -2.4930239317800E+02
(PID.TID 0000.0001) %MON forcing_qsw_sd               =   4.2832861101004E+01
(PID.TID 0000.0001) %MON forcing_qsw_del2             =   1.6645754276089E+00
(PID.TID 0000.0001) %MON forcing_empmr_max            =   6.8208671629459E-05
(PID.TID 0000.0001) %MON forcing_empmr_min            =   1.3750190494048E-05
(PID.TID 0000.0001) %MON forcing_empmr_mean           =   4.1025405562298E-05
(PID.TID 0000.0001) %MON forcing_empmr_sd             =   1.1873178769737E-05
(PID.TID 0000.0001) %MON forcing_empmr_del2           =   6.4152826553268E-07
(PID.TID 0000.0001) %MON forcing_fu_max               =   2.7356973787149E-01
(PID.TID 0000.0001) %MON forcing_fu_min               =  -1.1983880586922E-01
(PID.TID 0000.0001) %MON forcing_fu_mean              =  -3.1451216068558E-02
(PID.TID 0000.0001) %MON forcing_fu_sd                =   4.2802564065753E-02
(PID.TID 0000.0001) %MON forcing_fu_del2              =   2.0137535614592E-03
(PID.TID 0000.0001) %MON forcing_fv_max               =   3.3081459812820E-02
(PID.TID 0000.0001) %MON forcing_fv_min               =  -9.3967890677353E-02
(PID.TID 0000.0001) %MON forcing_fv_mean              =  -3.8778898355389E-02
(PID.TID 0000.0001) %MON forcing_fv_sd                =   2.3166199725416E-02
(PID.TID 0000.0001) %MON forcing_fv_del2              =   8.4242028166461E-04
(PID.TID 0000.0001) %MON advcfl_uvel_max              =   3.3979160873832E-03
(PID.TID 0000.0001) %MON advcfl_vvel_max              =   2.1070802963036E-03
(PID.TID 0000.0001) %MON advcfl_wvel_max              =   4.1168065945357E-03
(PID.TID 0000.0001) %MON advcfl_W_hf_max              =   5.1460082431696E-03
(PID.TID 0000.0001) %MON pe_b_mean                    =   6.6968058053862E-06
(PID.TID 0000.0001) %MON ke_max                       =   1.9547002936044E-02
(PID.TID 0000.0001) %MON ke_mean                      =   5.4247852855200E-05
(PID.TID 0000.0001) %MON ke_vol                       =   3.6027486600263E+16
(PID.TID 0000.0001) %MON vort_r_min                   =  -3.5935884777420E-07
(PID.TID 0000.0001) %MON vort_r_max                   =   8.1261895620564E-07
(PID.TID 0000.0001) %MON vort_a_mean                  =   6.2114138811197E-05
(PID.TID 0000.0001) %MON vort_a_sd                    =   1.9250292845964E-05
(PID.TID 0000.0001) %MON vort_p_mean                  =   7.8095197769435E-05
(PID.TID 0000.0001) %MON vort_p_sd                    =   5.6519862343089E-05
(PID.TID 0000.0001) %MON surfExpan_theta_mean         =  -1.8157174759719E-06
(PID.TID 0000.0001) %MON surfExpan_salt_mean          =   1.8489316014081E-07
(PID.TID 0000.0001) // =======================================================
(PID.TID 0000.0001) // End MONITOR dynamic field statistics
(PID.TID 0000.0001) // =======================================================
 EXTERNAL_FIELDS_LOAD,        12 : iP,iLd,i0,i1=    1    2    2    3 ; Wght=  1.0000000000  0.0000000000
 EXTERNAL_FIELDS_LOAD, it=        12 : Reading new data, i0,i1=    2    3 (prev=    1    2 )
(PID.TID 0000.0001)  MDS_READ_FIELD: opening global file: kf_tx
(PID.TID 0000.0001)  MDS_READ_FIELD: opening global file: kf_tx
(PID.TID 0000.0001)  MDS_READ_FIELD: opening global file: kf_ty
(PID.TID 0000.0001)  MDS_READ_FIELD: opening global file: kf_ty
(PID.TID 0000.0001)  MDS_READ_FIELD: opening global file: kf_qnet
(PID.TID 0000.0001)  MDS_READ_FIELD: opening global file: kf_qnet
(PID.TID 0000.0001)  MDS_READ_FIELD: opening global file: kf_empmr
(PID.TID 0000.0001)  MDS_READ_FIELD: opening global file: kf_empmr
(PID.TID 0000.0001)  MDS_READ_FIELD: opening global file: kf_sst
(PID.TID 0000.0001)  MDS_READ_FIELD: opening global file: kf_sst
(PID.TID 0000.0001)  MDS_READ_FIELD: opening global file: kf_sss
(PID.TID 0000.0001)  MDS_READ_FIELD: opening global file: kf_sss
(PID.TID 0000.0001)  MDS_READ_FIELD: opening global file: kf_sw
(PID.TID 0000.0001)  MDS_READ_FIELD: opening global file: kf_sw
 cg2d: Sum(rhs),rhsMax =   5.50670620214078E-14  5.54722183740114E-01
(PID.TID 0000.0001)                    cg2d_init_res =    7.34409980651130E-02
(PID.TID 0000.0001)                       cg2d_iters =    45
(PID.TID 0000.0001)                         cg2d_res =    4.76583998153490E-14
(PID.TID 0000.0001) // =======================================================
(PID.TID 0000.0001) // Begin MONITOR dynamic field statistics
(PID.TID 0000.0001) // =======================================================
(PID.TID 0000.0001) %MON time_tsnumber                =                    13
(PID.TID 0000.0001) %MON time_secondsf                =   6.8400000000000E+04
(PID.TID 0000.0001) %MON dynstat_eta_max              =   1.5082545787517E-01
(PID.TID 0000.0001) %MON dynstat_eta_min              =  -2.1443023418245E-01
(PID.TID 0000.0001) %MON dynstat_eta_mean             =  -2.6471845759927E-16
(PID.TID 0000.0001) %MON dynstat_eta_sd               =   7.4127765390264E-02
(PID.TID 0000.0001) %MON dynstat_eta_del2             =   1.3496715984200E-03
(PID.TID 0000.0001) %MON dynstat_uvel_max             =   4.0690757777329E-02
(PID.TID 0000.0001) %MON dynstat_uvel_min             =  -2.0468987481737E-01
(PID.TID 0000.0001) %MON dynstat_uvel_mean            =  -3.4983914836549E-05
(PID.TID 0000.0001) %MON dynstat_uvel_sd              =   8.9924158104380E-03
(PID.TID 0000.0001) %MON dynstat_uvel_del2            =   2.9008452303975E-04
(PID.TID 0000.0001) %MON dynstat_vvel_max             =   7.1306560347306E-02
(PID.TID 0000.0001) %MON dynstat_vvel_min             =  -1.3305357591356E-01
(PID.TID 0000.0001) %MON dynstat_vvel_mean            =   1.2959677264777E-04
(PID.TID 0000.0001) %MON dynstat_vvel_sd              =   6.3713623720589E-03
(PID.TID 0000.0001) %MON dynstat_vvel_del2            =   1.5459960490041E-04
(PID.TID 0000.0001) %MON dynstat_wvel_max             =   1.3927882540027E-04
(PID.TID 0000.0001) %MON dynstat_wvel_min             =  -1.5205458865431E-04
(PID.TID 0000.0001) %MON dynstat_wvel_mean            =  -1.1254787192334E-21
(PID.TID 0000.0001) %MON dynstat_wvel_sd              =   2.9119279915478E-05
(PID.TID 0000.0001) %MON dynstat_wvel_del2            =   5.8847308682558E-07
(PID.TID 0000.0001) %MON dynstat_theta_max            =   2.6122350441718E+01
(PID.TID 0000.0001) %MON dynstat_theta_min            =   1.8064584705479E+00
(PID.TID 0000.0001) %MON dynstat_theta_mean           =   5.4786134999047E+00
(PID.TID 0000.0001) %MON dynstat_theta_sd             =   4.5930655746946E+00
(PID.TID 0000.0001) %MON dynstat_theta_del2           =   3.2069220064548E-03
(PID.TID 0000.0001) %MON dynstat_salt_max             =   3.7403678037249E+01
(PID.TID 0000.0001) %MON dynstat_salt_min             =   3.4726807542664E+01
(PID.TID 0000.0001) %MON dynstat_salt_mean            =   3.5157568949071E+01
(PID.TID 0000.0001) %MON dynstat_salt_sd              =   4.1380031120194E-01
(PID.TID 0000.0001) %MON dynstat_salt_del2            =   7.9640028453657E-04
(PID.TID 0000.0001) %MON forcing_qnet_max             =   5.2073959350586E+01
(PID.TID 0000.0001) %MON forcing_qnet_min             =  -1.6258977508545E+02
(PID.TID 0000.0001) %MON forcing_qnet_mean            =  -7.4607262029879E+01
(PID.TID 0000.0001) %MON forcing_qnet_sd              =   5.2254875943117E+01
(PID.TID 0000.0001) %MON forcing_qnet_del2            =   2.1706299300652E+00
(PID.TID 0000.0001) %MON forcing_qsw_max              =  -1.3453924560547E+02
(PID.TID 0000.0001) %MON forcing_qsw_min              =  -3.1870358276367E+02
(PID.TID 0000.0001) %MON forcing_qsw_mean             =  -2.4958199286982E+02
(PID.TID 0000.0001) %MON forcing_qsw_sd               =   4.3110851683050E+01
(PID.TID 0000.0001) %MON forcing_qsw_del2             =   1.6679103723886E+00
(PID.TID 0000.0001) %MON forcing_empmr_max            =   6.8681426078854E-05
(PID.TID 0000.0001) %MON forcing_empmr_min            =   1.3899902912229E-05
(PID.TID 0000.0001) %MON forcing_empmr_mean           =   4.1414765110404E-05
(PID.TID 0000.0001) %MON forcing_empmr_sd             =   1.1913145629620E-05
(PID.TID 0000.0001) %MON forcing_empmr_del2           =   6.4340056737027E-07
(PID.TID 0000.0001) %MON forcing_fu_max               =   2.8203329443932E-01
(PID.TID 0000.0001) %MON forcing_fu_min               =  -1.2077324837446E-01
(PID.TID 0000.0001) %MON forcing_fu_mean              =  -3.1720418884897E-02
(PID.TID 0000.0001) %MON forcing_fu_sd                =   4.3203653604840E-02
(PID.TID 0000.0001) %MON forcing_fu_del2              =   2.0504692580788E-03
(PID.TID 0000.0001) %MON forcing_fv_max               =   3.4567866474390E-02
(PID.TID 0000.0001) %MON forcing_fv_min               =  -9.7719393670559E-02
(PID.TID 0000.0001) %MON forcing_fv_mean              =  -3.9098408049770E-02
(PID.TID 0000.0001) %MON forcing_fv_sd                =   2.3477569245921E-02
(PID.TID 0000.0001) %MON forcing_fv_del2              =   8.6702748277819E-04
(PID.TID 0000.0001) %MON advcfl_uvel_max              =   3.4654189819486E-03
(PID.TID 0000.0001) %MON advcfl_vvel_max              =   2.1541813231000E-03
(PID.TID 0000.0001) %MON advcfl_wvel_max              =   4.0034086994166E-03
(PID.TID 0000.0001) %MON advcfl_W_hf_max              =   5.0042608742708E-03
(PID.TID 0000.0001) %MON pe_b_mean                    =   6.6235973611059E-06
(PID.TID 0000.0001) %MON ke_max                       =   2.1043217012461E-02
(PID.TID 0000.0001) %MON ke_mean                      =   5.4249615180533E-05
(PID.TID 0000.0001) %MON ke_vol                       =   3.6027486600263E+16
(PID.TID 0000.0001) %MON vort_r_min                   =  -3.6157862059178E-07
(PID.TID 0000.0001) %MON vort_r_max                   =   8.0433198056829E-07
(PID.TID 0000.0001) %MON vort_a_mean                  =   6.2114138811197E-05
(PID.TID 0000.0001) %MON vort_a_sd                    =   1.9250252622586E-05
(PID.TID 0000.0001) %MON vort_p_mean                  =   7.8095197769435E-05
(PID.TID 0000.0001) %MON vort_p_sd                    =   5.6519702176260E-05
(PID.TID 0000.0001) %MON surfExpan_theta_mean         =  -8.4297552694777E-07
(PID.TID 0000.0001) %MON surfExpan_salt_mean          =   1.0842616349867E-07
(PID.TID 0000.0001) // =======================================================
(PID.TID 0000.0001) // End MONITOR dynamic field statistics
(PID.TID 0000.0001) // =======================================================
 EXTERNAL_FIELDS_LOAD,        13 : iP,iLd,i0,i1=    2    3    2    3 ; Wght=  0.9166666667  0.0833333333
 cg2d: Sum(rhs),rhsMax =   5.24025267623074E-14  5.50579887421753E-01
(PID.TID 0000.0001)                    cg2d_init_res =    6.58048210253351E-02
(PID.TID 0000.0001)                       cg2d_iters =    44
(PID.TID 0000.0001)                         cg2d_res =    7.13439650875172E-14
(PID.TID 0000.0001) // =======================================================
(PID.TID 0000.0001) // Begin MONITOR dynamic field statistics
(PID.TID 0000.0001) // =======================================================
(PID.TID 0000.0001) %MON time_tsnumber                =                    14
(PID.TID 0000.0001) %MON time_secondsf                =   7.2000000000000E+04
(PID.TID 0000.0001) %MON dynstat_eta_max              =   1.5127498090325E-01
(PID.TID 0000.0001) %MON dynstat_eta_min              =  -2.1311955446749E-01
(PID.TID 0000.0001) %MON dynstat_eta_mean             =  -3.0056574873251E-16
(PID.TID 0000.0001) %MON dynstat_eta_sd               =   7.4343758701449E-02
(PID.TID 0000.0001) %MON dynstat_eta_del2             =   1.3636886303217E-03
(PID.TID 0000.0001) %MON dynstat_uvel_max             =   3.9103744544650E-02
(PID.TID 0000.0001) %MON dynstat_uvel_min             =  -2.0587458755754E-01
(PID.TID 0000.0001) %MON dynstat_uvel_mean            =  -5.9155192188396E-05
(PID.TID 0000.0001) %MON dynstat_uvel_sd              =   8.9948164986304E-03
(PID.TID 0000.0001) %MON dynstat_uvel_del2            =   2.8162796710528E-04
(PID.TID 0000.0001) %MON dynstat_vvel_max             =   7.3953097023988E-02
(PID.TID 0000.0001) %MON dynstat_vvel_min             =  -1.3433619201880E-01
(PID.TID 0000.0001) %MON dynstat_vvel_mean            =   2.0927925424764E-05
(PID.TID 0000.0001) %MON dynstat_vvel_sd              =   6.2241744498162E-03
(PID.TID 0000.0001) %MON dynstat_vvel_del2            =   1.6163867281410E-04
(PID.TID 0000.0001) %MON dynstat_wvel_max             =   1.3311621950741E-04
(PID.TID 0000.0001) %MON dynstat_wvel_min             =  -1.5739564139004E-04
(PID.TID 0000.0001) %MON dynstat_wvel_mean            =  -4.5019148769337E-22
(PID.TID 0000.0001) %MON dynstat_wvel_sd              =   2.8220848873517E-05
(PID.TID 0000.0001) %MON dynstat_wvel_del2            =   5.6108324836522E-07
(PID.TID 0000.0001) %MON dynstat_theta_max            =   2.6128809686965E+01
(PID.TID 0000.0001) %MON dynstat_theta_min            =   1.8064604629676E+00
(PID.TID 0000.0001) %MON dynstat_theta_mean           =   5.4786299135421E+00
(PID.TID 0000.0001) %MON dynstat_theta_sd             =   4.5931197445414E+00
(PID.TID 0000.0001) %MON dynstat_theta_del2           =   3.2101711652500E-03
(PID.TID 0000.0001) %MON dynstat_salt_max             =   3.7404041260464E+01
(PID.TID 0000.0001) %MON dynstat_salt_min             =   3.4726811485330E+01
(PID.TID 0000.0001) %MON dynstat_salt_mean            =   3.5157570242925E+01
(PID.TID 0000.0001) %MON dynstat_salt_sd              =   4.1380342959454E-01
(PID.TID 0000.0001) %MON dynstat_salt_del2            =   7.9664248766312E-04
(PID.TID 0000.0001) %MON forcing_qnet_max             =   5.1977971394857E+01
(PID.TID 0000.0001) %MON forcing_qnet_min             =  -1.6385988362630E+02
(PID.TID 0000.0001) %MON forcing_qnet_mean            =  -7.3651586729899E+01
(PID.TID 0000.0001) %MON forcing_qnet_sd              =   5.1704387965704E+01
(PID.TID 0000.0001) %MON forcing_qnet_del2            =   2.1286045025404E+00
(PID.TID 0000.0001) %MON forcing_qsw_max              =  -1.3404340108236E+02
(PID.TID 0000.0001) %MON forcing_qsw_min              =  -3.1842380015055E+02
(PID.TID 0000.0001) %MON forcing_qsw_mean             =  -2.5003001626694E+02
(PID.TID 0000.0001) %MON forcing_qsw_sd               =   4.2766618166345E+01
(PID.TID 0000.0001) %MON forcing_qsw_del2             =   1.6234981043782E+00
(PID.TID 0000.0001) %MON forcing_empmr_max            =   6.8503168801470E-05
(PID.TID 0000.0001) %MON forcing_empmr_min            =   1.3984636391040E-05
(PID.TID 0000.0001) %MON forcing_empmr_mean           =   4.1836037621644E-05
(PID.TID 0000.0001) %MON forcing_empmr_sd             =   1.1816049545074E-05
(PID.TID 0000.0001) %MON forcing_empmr_del2           =   6.3867466161194E-07
(PID.TID 0000.0001) %MON forcing_fu_max               =   2.6923674469193E-01
(PID.TID 0000.0001) %MON forcing_fu_min               =  -1.2179796956480E-01
(PID.TID 0000.0001) %MON forcing_fu_mean              =  -3.2460291426452E-02
(PID.TID 0000.0001) %MON forcing_fu_sd                =   4.2930898726288E-02
(PID.TID 0000.0001) %MON forcing_fu_del2              =   2.0221698758300E-03
(PID.TID 0000.0001) %MON forcing_fv_max               =   3.4120970716079E-02
(PID.TID 0000.0001) %MON forcing_fv_min               =  -9.6915982042750E-02
(PID.TID 0000.0001) %MON forcing_fv_mean              =  -3.9993858970219E-02
(PID.TID 0000.0001) %MON forcing_fv_sd                =   2.3821730949385E-02
(PID.TID 0000.0001) %MON forcing_fv_del2              =   8.5071843786638E-04
(PID.TID 0000.0001) %MON advcfl_uvel_max              =   3.4630345845447E-03
(PID.TID 0000.0001) %MON advcfl_vvel_max              =   2.1749473013132E-03
(PID.TID 0000.0001) %MON advcfl_wvel_max              =   3.8886249358620E-03
(PID.TID 0000.0001) %MON advcfl_W_hf_max              =   4.8607811698275E-03
(PID.TID 0000.0001) %MON pe_b_mean                    =   6.6622532421983E-06
(PID.TID 0000.0001) %MON ke_max                       =   2.2008825578488E-02
(PID.TID 0000.0001) %MON ke_mean                      =   5.3448566847278E-05
(PID.TID 0000.0001) %MON ke_vol                       =   3.6027486600263E+16
(PID.TID 0000.0001) %MON vort_r_min                   =  -3.6405858670344E-07
(PID.TID 0000.0001) %MON vort_r_max                   =   7.9147892292157E-07
(PID.TID 0000.0001) %MON vort_a_mean                  =   6.2114138811197E-05
(PID.TID 0000.0001) %MON vort_a_sd                    =   1.9250229103044E-05
(PID.TID 0000.0001) %MON vort_p_mean                  =   7.8095197769435E-05
(PID.TID 0000.0001) %MON vort_p_sd                    =   5.6519733255592E-05
(PID.TID 0000.0001) %MON surfExpan_theta_mean         =  -6.5756959815795E-09
(PID.TID 0000.0001) %MON surfExpan_salt_mean          =   2.1339684341378E-08
(PID.TID 0000.0001) // =======================================================
(PID.TID 0000.0001) // End MONITOR dynamic field statistics
(PID.TID 0000.0001) // =======================================================
 EXTERNAL_FIELDS_LOAD,        14 : iP,iLd,i0,i1=    2    3    2    3 ; Wght=  0.8333333333  0.1666666667
 cg2d: Sum(rhs),rhsMax =   5.59552404411079E-14  5.47656552697912E-01
(PID.TID 0000.0001)                    cg2d_init_res =    6.71521321557371E-02
(PID.TID 0000.0001)                       cg2d_iters =    44
(PID.TID 0000.0001)                         cg2d_res =    7.79422883218326E-14
(PID.TID 0000.0001) // =======================================================
(PID.TID 0000.0001) // Begin MONITOR dynamic field statistics
(PID.TID 0000.0001) // =======================================================
(PID.TID 0000.0001) %MON time_tsnumber                =                    15
(PID.TID 0000.0001) %MON time_secondsf                =   7.5600000000000E+04
(PID.TID 0000.0001) %MON dynstat_eta_max              =   1.5183455642507E-01
(PID.TID 0000.0001) %MON dynstat_eta_min              =  -2.1352468173501E-01
(PID.TID 0000.0001) %MON dynstat_eta_mean             =  -2.9780826479918E-16
(PID.TID 0000.0001) %MON dynstat_eta_sd               =   7.4857034397033E-02
(PID.TID 0000.0001) %MON dynstat_eta_del2             =   1.3789669591104E-03
(PID.TID 0000.0001) %MON dynstat_uvel_max             =   3.6622138172235E-02
(PID.TID 0000.0001) %MON dynstat_uvel_min             =  -2.0946647907903E-01
(PID.TID 0000.0001) %MON dynstat_uvel_mean            =  -6.9256743659838E-05
(PID.TID 0000.0001) %MON dynstat_uvel_sd              =   8.9163709858313E-03
(PID.TID 0000.0001) %MON dynstat_uvel_del2            =   2.6881218156183E-04
(PID.TID 0000.0001) %MON dynstat_vvel_max             =   7.9723279089862E-02
(PID.TID 0000.0001) %MON dynstat_vvel_min             =  -1.3387974081434E-01
(PID.TID 0000.0001) %MON dynstat_vvel_mean            =  -4.9534327291241E-05
(PID.TID 0000.0001) %MON dynstat_vvel_sd              =   6.0580882223703E-03
(PID.TID 0000.0001) %MON dynstat_vvel_del2            =   1.6778263414071E-04
(PID.TID 0000.0001) %MON dynstat_wvel_max             =   1.2479659177646E-04
(PID.TID 0000.0001) %MON dynstat_wvel_min             =  -1.6130275977775E-04
(PID.TID 0000.0001) %MON dynstat_wvel_mean            =   4.5019148769337E-22
(PID.TID 0000.0001) %MON dynstat_wvel_sd              =   2.7150908647610E-05
(PID.TID 0000.0001) %MON dynstat_wvel_del2            =   5.2907847272135E-07
(PID.TID 0000.0001) %MON dynstat_theta_max            =   2.6135122957340E+01
(PID.TID 0000.0001) %MON dynstat_theta_min            =   1.8064625666714E+00
(PID.TID 0000.0001) %MON dynstat_theta_mean           =   5.4786454514813E+00
(PID.TID 0000.0001) %MON dynstat_theta_sd             =   4.5931706786531E+00
(PID.TID 0000.0001) %MON dynstat_theta_del2           =   3.2139745914196E-03
(PID.TID 0000.0001) %MON dynstat_salt_max             =   3.7404408224006E+01
(PID.TID 0000.0001) %MON dynstat_salt_min             =   3.4726816189620E+01
(PID.TID 0000.0001) %MON dynstat_salt_mean            =   3.5157571631378E+01
(PID.TID 0000.0001) %MON dynstat_salt_sd              =   4.1380679844948E-01
(PID.TID 0000.0001) %MON dynstat_salt_del2            =   7.9689459887415E-04
(PID.TID 0000.0001) %MON forcing_qnet_max             =   5.1881983439128E+01
(PID.TID 0000.0001) %MON forcing_qnet_min             =  -1.6512999216715E+02
(PID.TID 0000.0001) %MON forcing_qnet_mean            =  -7.2695911429919E+01
(PID.TID 0000.0001) %MON forcing_qnet_sd              =   5.1206831276043E+01
(PID.TID 0000.0001) %MON forcing_qnet_del2            =   2.0929995835516E+00
(PID.TID 0000.0001) %MON forcing_qsw_max              =  -1.3354755655924E+02
(PID.TID 0000.0001) %MON forcing_qsw_min              =  -3.1814401753743E+02
(PID.TID 0000.0001) %MON forcing_qsw_mean             =  -2.5047803966406E+02
(PID.TID 0000.0001) %MON forcing_qsw_sd               =   4.2471564939527E+01
(PID.TID 0000.0001) %MON forcing_qsw_del2             =   1.5851215196385E+00
(PID.TID 0000.0001) %MON forcing_empmr_max            =   6.8324911524087E-05
(PID.TID 0000.0001) %MON forcing_empmr_min            =   1.4069369869851E-05
(PID.TID 0000.0001) %MON forcing_empmr_mean           =   4.2257310132885E-05
(PID.TID 0000.0001) %MON forcing_empmr_sd             =   1.1736454149462E-05
(PID.TID 0000.0001) %MON forcing_empmr_del2           =   6.3518512433289E-07
(PID.TID 0000.0001) %MON forcing_fu_max               =   2.5644019494454E-01
(PID.TID 0000.0001) %MON forcing_fu_min               =  -1.2285739555955E-01
(PID.TID 0000.0001) %MON forcing_fu_mean              =  -3.3200163968007E-02
(PID.TID 0000.0001) %MON forcing_fu_sd                =   4.2690280331473E-02
(PID.TID 0000.0001) %MON forcing_fu_del2              =   1.9974273619129E-03
(PID.TID 0000.0001) %MON forcing_fv_max               =   3.3674074957768E-02
(PID.TID 0000.0001) %MON forcing_fv_min               =  -9.6112570414941E-02
(PID.TID 0000.0001) %MON forcing_fv_mean              =  -4.0889309890668E-02
(PID.TID 0000.0001) %MON forcing_fv_sd                =   2.4229192717644E-02
(PID.TID 0000.0001) %MON forcing_fv_del2              =   8.3902903437457E-04
(PID.TID 0000.0001) %MON advcfl_uvel_max              =   3.5109646740828E-03
(PID.TID 0000.0001) %MON advcfl_vvel_max              =   2.1675572056107E-03
(PID.TID 0000.0001) %MON advcfl_wvel_max              =   3.9159090913242E-03
(PID.TID 0000.0001) %MON advcfl_W_hf_max              =   4.8948863641553E-03
(PID.TID 0000.0001) %MON pe_b_mean                    =   6.7545643450718E-06
(PID.TID 0000.0001) %MON ke_max                       =   2.2731597730542E-02
(PID.TID 0000.0001) %MON ke_mean                      =   5.1921346058399E-05
(PID.TID 0000.0001) %MON ke_vol                       =   3.6027486600263E+16
(PID.TID 0000.0001) %MON vort_r_min                   =  -3.7708892203600E-07
(PID.TID 0000.0001) %MON vort_r_max                   =   7.7683917084274E-07
(PID.TID 0000.0001) %MON vort_a_mean                  =   6.2114138811197E-05
(PID.TID 0000.0001) %MON vort_a_sd                    =   1.9250216849191E-05
(PID.TID 0000.0001) %MON vort_p_mean                  =   7.8095197769435E-05
(PID.TID 0000.0001) %MON vort_p_sd                    =   5.6519966206907E-05
(PID.TID 0000.0001) %MON surfExpan_theta_mean         =   4.9985279318163E-07
(PID.TID 0000.0001) %MON surfExpan_salt_mean          =  -4.0617670570855E-08
(PID.TID 0000.0001) // =======================================================
(PID.TID 0000.0001) // End MONITOR dynamic field statistics
(PID.TID 0000.0001) // =======================================================
 EXTERNAL_FIELDS_LOAD,        15 : iP,iLd,i0,i1=    2    3    2    3 ; Wght=  0.7500000000  0.2500000000
 cg2d: Sum(rhs),rhsMax =   6.03961325396085E-14  5.45672072449641E-01
(PID.TID 0000.0001)                    cg2d_init_res =    6.82369907541445E-02
(PID.TID 0000.0001)                       cg2d_iters =    44
(PID.TID 0000.0001)                         cg2d_res =    7.93096801014133E-14
(PID.TID 0000.0001) // =======================================================
(PID.TID 0000.0001) // Begin MONITOR dynamic field statistics
(PID.TID 0000.0001) // =======================================================
(PID.TID 0000.0001) %MON time_tsnumber                =                    16
(PID.TID 0000.0001) %MON time_secondsf                =   7.9200000000000E+04
(PID.TID 0000.0001) %MON dynstat_eta_max              =   1.5211535980325E-01
(PID.TID 0000.0001) %MON dynstat_eta_min              =  -2.1485598442860E-01
(PID.TID 0000.0001) %MON dynstat_eta_mean             =  -2.7299090939925E-16
(PID.TID 0000.0001) %MON dynstat_eta_sd               =   7.5413153027610E-02
(PID.TID 0000.0001) %MON dynstat_eta_del2             =   1.3952420185980E-03
(PID.TID 0000.0001) %MON dynstat_uvel_max             =   3.3526343319228E-02
(PID.TID 0000.0001) %MON dynstat_uvel_min             =  -2.1129280401891E-01
(PID.TID 0000.0001) %MON dynstat_uvel_mean            =  -6.9643312728039E-05
(PID.TID 0000.0001) %MON dynstat_uvel_sd              =   8.7703501803157E-03
(PID.TID 0000.0001) %MON dynstat_uvel_del2            =   2.5477301018836E-04
(PID.TID 0000.0001) %MON dynstat_vvel_max             =   8.5826551656130E-02
(PID.TID 0000.0001) %MON dynstat_vvel_min             =  -1.3167989245567E-01
(PID.TID 0000.0001) %MON dynstat_vvel_mean            =  -7.2537398135180E-05
(PID.TID 0000.0001) %MON dynstat_vvel_sd              =   5.8861537882892E-03
(PID.TID 0000.0001) %MON dynstat_vvel_del2            =   1.7174397652259E-04
(PID.TID 0000.0001) %MON dynstat_wvel_max             =   1.1456240952968E-04
(PID.TID 0000.0001) %MON dynstat_wvel_min             =  -1.6374580843966E-04
(PID.TID 0000.0001) %MON dynstat_wvel_mean            =  -5.6273935961672E-22
(PID.TID 0000.0001) %MON dynstat_wvel_sd              =   2.5883834183435E-05
(PID.TID 0000.0001) %MON dynstat_wvel_del2            =   4.9263380652068E-07
(PID.TID 0000.0001) %MON dynstat_theta_max            =   2.6141313965473E+01
(PID.TID 0000.0001) %MON dynstat_theta_min            =   1.8064648140072E+00
(PID.TID 0000.0001) %MON dynstat_theta_mean           =   5.4786605086443E+00
(PID.TID 0000.0001) %MON dynstat_theta_sd             =   4.5932198602757E+00
(PID.TID 0000.0001) %MON dynstat_theta_del2           =   3.2181400290581E-03
(PID.TID 0000.0001) %MON dynstat_salt_max             =   3.7404777645585E+01
(PID.TID 0000.0001) %MON dynstat_salt_min             =   3.4726821542040E+01
(PID.TID 0000.0001) %MON dynstat_salt_mean            =   3.5157573073299E+01
(PID.TID 0000.0001) %MON dynstat_salt_sd              =   4.1381031965086E-01
(PID.TID 0000.0001) %MON dynstat_salt_del2            =   7.9714533307302E-04
(PID.TID 0000.0001) %MON forcing_qnet_max             =   5.1785995483398E+01
(PID.TID 0000.0001) %MON forcing_qnet_min             =  -1.6640010070801E+02
(PID.TID 0000.0001) %MON forcing_qnet_mean            =  -7.1740236129939E+01
(PID.TID 0000.0001) %MON forcing_qnet_sd              =   5.0763762302510E+01
(PID.TID 0000.0001) %MON forcing_qnet_del2            =   2.0641474460007E+00
(PID.TID 0000.0001) %MON forcing_qsw_max              =  -1.3305171203613E+02
(PID.TID 0000.0001) %MON forcing_qsw_min              =  -3.1786423492432E+02
(PID.TID 0000.0001) %MON forcing_qsw_mean             =  -2.5092606306118E+02
(PID.TID 0000.0001) %MON forcing_qsw_sd               =   4.2226722936044E+01
(PID.TID 0000.0001) %MON forcing_qsw_del2             =   1.5532280649104E+00
(PID.TID 0000.0001) %MON forcing_empmr_max            =   6.8301180591135E-05
(PID.TID 0000.0001) %MON forcing_empmr_min            =   1.4154103348663E-05
(PID.TID 0000.0001) %MON forcing_empmr_mean           =   4.2678582644125E-05
(PID.TID 0000.0001) %MON forcing_empmr_sd             =   1.1674717394650E-05
(PID.TID 0000.0001) %MON forcing_empmr_del2           =   6.3295240457588E-07
(PID.TID 0000.0001) %MON forcing_fu_max               =   2.4364364519715E-01
(PID.TID 0000.0001) %MON forcing_fu_min               =  -1.2391682155430E-01
(PID.TID 0000.0001) %MON forcing_fu_mean              =  -3.3940036509562E-02
(PID.TID 0000.0001) %MON forcing_fu_sd                =   4.2482344483398E-02
(PID.TID 0000.0001) %MON forcing_fu_del2              =   1.9763753076118E-03
(PID.TID 0000.0001) %MON forcing_fv_max               =   3.3227179199457E-02
(PID.TID 0000.0001) %MON forcing_fv_min               =  -9.5904327929020E-02
(PID.TID 0000.0001) %MON forcing_fv_mean              =  -4.1784760811117E-02
(PID.TID 0000.0001) %MON forcing_fv_sd                =   2.4696821671392E-02
(PID.TID 0000.0001) %MON forcing_fv_del2              =   8.3215397366462E-04
(PID.TID 0000.0001) %MON advcfl_uvel_max              =   3.5415765522960E-03
(PID.TID 0000.0001) %MON advcfl_vvel_max              =   2.1319409343805E-03
(PID.TID 0000.0001) %MON advcfl_wvel_max              =   4.2601027250516E-03
(PID.TID 0000.0001) %MON advcfl_W_hf_max              =   5.3251284063145E-03
(PID.TID 0000.0001) %MON pe_b_mean                    =   6.8552974870978E-06
(PID.TID 0000.0001) %MON ke_max                       =   2.3230441715048E-02
(PID.TID 0000.0001) %MON ke_mean                      =   4.9857659886080E-05
(PID.TID 0000.0001) %MON ke_vol                       =   3.6027486600263E+16
(PID.TID 0000.0001) %MON vort_r_min                   =  -3.8872459852761E-07
(PID.TID 0000.0001) %MON vort_r_max                   =   7.6832940828736E-07
(PID.TID 0000.0001) %MON vort_a_mean                  =   6.2114138811197E-05
(PID.TID 0000.0001) %MON vort_a_sd                    =   1.9250212261521E-05
(PID.TID 0000.0001) %MON vort_p_mean                  =   7.8095197769435E-05
(PID.TID 0000.0001) %MON vort_p_sd                    =   5.6520378760118E-05
(PID.TID 0000.0001) %MON surfExpan_theta_mean         =   6.3392225893398E-07
(PID.TID 0000.0001) %MON surfExpan_salt_mean          =  -6.4986305761647E-08
(PID.TID 0000.0001) // =======================================================
(PID.TID 0000.0001) // End MONITOR dynamic field statistics
(PID.TID 0000.0001) // =======================================================
 EXTERNAL_FIELDS_LOAD,        16 : iP,iLd,i0,i1=    2    3    2    3 ; Wght=  0.6666666667  0.3333333333
 cg2d: Sum(rhs),rhsMax =   5.59552404411079E-14  5.44093993532659E-01
(PID.TID 0000.0001)                    cg2d_init_res =    6.57089035427305E-02
(PID.TID 0000.0001)                       cg2d_iters =    44
(PID.TID 0000.0001)                         cg2d_res =    6.38810366964328E-14
(PID.TID 0000.0001) // =======================================================
(PID.TID 0000.0001) // Begin MONITOR dynamic field statistics
(PID.TID 0000.0001) // =======================================================
(PID.TID 0000.0001) %MON time_tsnumber                =                    17
(PID.TID 0000.0001) %MON time_secondsf                =   8.2800000000000E+04
(PID.TID 0000.0001) %MON dynstat_eta_max              =   1.5193326554746E-01
(PID.TID 0000.0001) %MON dynstat_eta_min              =  -2.1632162430166E-01
(PID.TID 0000.0001) %MON dynstat_eta_mean             =  -2.8126336119923E-16
(PID.TID 0000.0001) %MON dynstat_eta_sd               =   7.5823288542936E-02
(PID.TID 0000.0001) %MON dynstat_eta_del2             =   1.4121408341507E-03
(PID.TID 0000.0001) %MON dynstat_uvel_max             =   3.0928996475125E-02
(PID.TID 0000.0001) %MON dynstat_uvel_min             =  -2.1151020639708E-01
(PID.TID 0000.0001) %MON dynstat_uvel_mean            =  -6.4171451534377E-05
(PID.TID 0000.0001) %MON dynstat_uvel_sd              =   8.5705751230316E-03
(PID.TID 0000.0001) %MON dynstat_uvel_del2            =   2.4151446385200E-04
(PID.TID 0000.0001) %MON dynstat_vvel_max             =   9.7212153466565E-02
(PID.TID 0000.0001) %MON dynstat_vvel_min             =  -1.2762930267186E-01
(PID.TID 0000.0001) %MON dynstat_vvel_mean            =  -5.6486963992019E-05
(PID.TID 0000.0001) %MON dynstat_vvel_sd              =   5.7252174436401E-03
(PID.TID 0000.0001) %MON dynstat_vvel_del2            =   1.7312886478415E-04
(PID.TID 0000.0001) %MON dynstat_wvel_max             =   1.0272451440194E-04
(PID.TID 0000.0001) %MON dynstat_wvel_min             =  -1.6468309792759E-04
(PID.TID 0000.0001) %MON dynstat_wvel_mean            =   4.5019148769337E-22
(PID.TID 0000.0001) %MON dynstat_wvel_sd              =   2.4477933376200E-05
(PID.TID 0000.0001) %MON dynstat_wvel_del2            =   4.5452247605619E-07
(PID.TID 0000.0001) %MON dynstat_theta_max            =   2.6147404559908E+01
(PID.TID 0000.0001) %MON dynstat_theta_min            =   1.8064672270544E+00
(PID.TID 0000.0001) %MON dynstat_theta_mean           =   5.4786754368141E+00
(PID.TID 0000.0001) %MON dynstat_theta_sd             =   4.5932685997076E+00
(PID.TID 0000.0001) %MON dynstat_theta_del2           =   3.2224610107898E-03
(PID.TID 0000.0001) %MON dynstat_salt_max             =   3.7405148350904E+01
(PID.TID 0000.0001) %MON dynstat_salt_min             =   3.4726827443416E+01
(PID.TID 0000.0001) %MON dynstat_salt_mean            =   3.5157574528860E+01
(PID.TID 0000.0001) %MON dynstat_salt_sd              =   4.1381389488188E-01
(PID.TID 0000.0001) %MON dynstat_salt_del2            =   7.9739222479163E-04
(PID.TID 0000.0001) %MON forcing_qnet_max             =   5.2881464640299E+01
(PID.TID 0000.0001) %MON forcing_qnet_min             =  -1.6767020924886E+02
(PID.TID 0000.0001) %MON forcing_qnet_mean            =  -7.0784560829959E+01
(PID.TID 0000.0001) %MON forcing_qnet_sd              =   5.0376618745466E+01
(PID.TID 0000.0001) %MON forcing_qnet_del2            =   2.0423343003746E+00
(PID.TID 0000.0001) %MON forcing_qsw_max              =  -1.3255586751302E+02
(PID.TID 0000.0001) %MON forcing_qsw_min              =  -3.1758445231120E+02
(PID.TID 0000.0001) %MON forcing_qsw_mean             =  -2.5137408645830E+02
(PID.TID 0000.0001) %MON forcing_qsw_sd               =   4.2032969606024E+01
(PID.TID 0000.0001) %MON forcing_qsw_del2             =   1.5282236955802E+00
(PID.TID 0000.0001) %MON forcing_empmr_max            =   6.8865692161542E-05
(PID.TID 0000.0001) %MON forcing_empmr_min            =   1.4238836827474E-05
(PID.TID 0000.0001) %MON forcing_empmr_mean           =   4.3099855155366E-05
(PID.TID 0000.0001) %MON forcing_empmr_sd             =   1.1631123659352E-05
(PID.TID 0000.0001) %MON forcing_empmr_del2           =   6.3198982289187E-07
(PID.TID 0000.0001) %MON forcing_fu_max               =   2.3084709544977E-01
(PID.TID 0000.0001) %MON forcing_fu_min               =  -1.2497624754906E-01
(PID.TID 0000.0001) %MON forcing_fu_mean              =  -3.4679909051117E-02
(PID.TID 0000.0001) %MON forcing_fu_sd                =   4.2307573075345E-02
(PID.TID 0000.0001) %MON forcing_fu_del2              =   1.9591326851370E-03
(PID.TID 0000.0001) %MON forcing_fv_max               =   3.2780283441146E-02
(PID.TID 0000.0001) %MON forcing_fv_min               =  -9.8520850141843E-02
(PID.TID 0000.0001) %MON forcing_fv_mean              =  -4.2680211731566E-02
(PID.TID 0000.0001) %MON forcing_fv_sd                =   2.5221271343537E-02
(PID.TID 0000.0001) %MON forcing_fv_del2              =   8.3021286825289E-04
(PID.TID 0000.0001) %MON advcfl_uvel_max              =   3.5452205342505E-03
(PID.TID 0000.0001) %MON advcfl_vvel_max              =   2.0663605484351E-03
(PID.TID 0000.0001) %MON advcfl_wvel_max              =   4.4984137193724E-03
(PID.TID 0000.0001) %MON advcfl_W_hf_max              =   5.6230171492155E-03
(PID.TID 0000.0001) %MON pe_b_mean                    =   6.9300655168251E-06
(PID.TID 0000.0001) %MON ke_max                       =   2.3507605580814E-02
(PID.TID 0000.0001) %MON ke_mean                      =   4.7475724429118E-05
(PID.TID 0000.0001) %MON ke_vol                       =   3.6027486600263E+16
(PID.TID 0000.0001) %MON vort_r_min                   =  -3.9044255913821E-07
(PID.TID 0000.0001) %MON vort_r_max                   =   7.5719152670039E-07
(PID.TID 0000.0001) %MON vort_a_mean                  =   6.2114138811197E-05
(PID.TID 0000.0001) %MON vort_a_sd                    =   1.9250212335691E-05
(PID.TID 0000.0001) %MON vort_p_mean                  =   7.8095197769435E-05
(PID.TID 0000.0001) %MON vort_p_sd                    =   5.6520921863568E-05
(PID.TID 0000.0001) %MON surfExpan_theta_mean         =   4.7509630526003E-07
(PID.TID 0000.0001) %MON surfExpan_salt_mean          =  -5.6787101871039E-08
(PID.TID 0000.0001) // =======================================================
(PID.TID 0000.0001) // End MONITOR dynamic field statistics
(PID.TID 0000.0001) // =======================================================
 EXTERNAL_FIELDS_LOAD,        17 : iP,iLd,i0,i1=    2    3    2    3 ; Wght=  0.5833333333  0.4166666667
 cg2d: Sum(rhs),rhsMax =   5.59552404411079E-14  5.42450922431561E-01
(PID.TID 0000.0001)                    cg2d_init_res =    6.20564698572228E-02
(PID.TID 0000.0001)                       cg2d_iters =    44
(PID.TID 0000.0001)                         cg2d_res =    7.24580837322714E-14
(PID.TID 0000.0001) // =======================================================
(PID.TID 0000.0001) // Begin MONITOR dynamic field statistics
(PID.TID 0000.0001) // =======================================================
(PID.TID 0000.0001) %MON time_tsnumber                =                    18
(PID.TID 0000.0001) %MON time_secondsf                =   8.6400000000000E+04
(PID.TID 0000.0001) %MON dynstat_eta_max              =   1.5130487056426E-01
(PID.TID 0000.0001) %MON dynstat_eta_min              =  -2.1737618464603E-01
(PID.TID 0000.0001) %MON dynstat_eta_mean             =  -2.7023342546593E-16
(PID.TID 0000.0001) %MON dynstat_eta_sd               =   7.5996402646786E-02
(PID.TID 0000.0001) %MON dynstat_eta_del2             =   1.4293156457554E-03
(PID.TID 0000.0001) %MON dynstat_uvel_max             =   2.9840280637030E-02
(PID.TID 0000.0001) %MON dynstat_uvel_min             =  -2.1019768754488E-01
(PID.TID 0000.0001) %MON dynstat_uvel_mean            =  -5.7196420061211E-05
(PID.TID 0000.0001) %MON dynstat_uvel_sd              =   8.3317334187204E-03
(PID.TID 0000.0001) %MON dynstat_uvel_del2            =   2.3012747612177E-04
(PID.TID 0000.0001) %MON dynstat_vvel_max             =   1.0733708168489E-01
(PID.TID 0000.0001) %MON dynstat_vvel_min             =  -1.2199594441021E-01
(PID.TID 0000.0001) %MON dynstat_vvel_mean            =  -1.9098019214317E-05
(PID.TID 0000.0001) %MON dynstat_vvel_sd              =   5.5924955484101E-03
(PID.TID 0000.0001) %MON dynstat_vvel_del2            =   1.7246095552998E-04
(PID.TID 0000.0001) %MON dynstat_wvel_max             =   8.9631849267048E-05
(PID.TID 0000.0001) %MON dynstat_wvel_min             =  -1.6407816870112E-04
(PID.TID 0000.0001) %MON dynstat_wvel_mean            =   1.3505744630801E-21
(PID.TID 0000.0001) %MON dynstat_wvel_sd              =   2.3062478083906E-05
(PID.TID 0000.0001) %MON dynstat_wvel_del2            =   4.1963385435229E-07
(PID.TID 0000.0001) %MON dynstat_theta_max            =   2.6153409120147E+01
(PID.TID 0000.0001) %MON dynstat_theta_min            =   1.8064698191590E+00
(PID.TID 0000.0001) %MON dynstat_theta_mean           =   5.4786904528968E+00
(PID.TID 0000.0001) %MON dynstat_theta_sd             =   4.5933177002665E+00
(PID.TID 0000.0001) %MON dynstat_theta_del2           =   3.2268055380033E-03
(PID.TID 0000.0001) %MON dynstat_salt_max             =   3.7405519198898E+01
(PID.TID 0000.0001) %MON dynstat_salt_min             =   3.4726833834169E+01
(PID.TID 0000.0001) %MON dynstat_salt_mean            =   3.5157575971977E+01
(PID.TID 0000.0001) %MON dynstat_salt_sd              =   4.1381745892266E-01
(PID.TID 0000.0001) %MON dynstat_salt_del2            =   7.9762889372981E-04
(PID.TID 0000.0001) %MON forcing_qnet_max             =   5.4347905476888E+01
(PID.TID 0000.0001) %MON forcing_qnet_min             =  -1.6894031778971E+02
(PID.TID 0000.0001) %MON forcing_qnet_mean            =  -6.9828885529979E+01
(PID.TID 0000.0001) %MON forcing_qnet_sd              =   5.0046698479458E+01
(PID.TID 0000.0001) %MON forcing_qnet_del2            =   2.0277873171795E+00
(PID.TID 0000.0001) %MON forcing_qsw_max              =  -1.3206002298991E+02
(PID.TID 0000.0001) %MON forcing_qsw_min              =  -3.1730466969808E+02
(PID.TID 0000.0001) %MON forcing_qsw_mean             =  -2.5182210985542E+02
(PID.TID 0000.0001) %MON forcing_qsw_sd               =   4.1891013837849E+01
(PID.TID 0000.0001) %MON forcing_qsw_del2             =   1.5104505812318E+00
(PID.TID 0000.0001) %MON forcing_empmr_max            =   6.9430203731950E-05
(PID.TID 0000.0001) %MON forcing_empmr_min            =   1.4323570306285E-05
(PID.TID 0000.0001) %MON forcing_empmr_mean           =   4.3521127666606E-05
(PID.TID 0000.0001) %MON forcing_empmr_sd             =   1.1605877390574E-05
(PID.TID 0000.0001) %MON forcing_empmr_del2           =   6.3230318006106E-07
(PID.TID 0000.0001) %MON forcing_fu_max               =   2.1805054570238E-01
(PID.TID 0000.0001) %MON forcing_fu_min               =  -1.2603567354381E-01
(PID.TID 0000.0001) %MON forcing_fu_mean              =  -3.5419781592672E-02
(PID.TID 0000.0001) %MON forcing_fu_sd                =   4.2166378489721E-02
(PID.TID 0000.0001) %MON forcing_fu_del2              =   1.9458007684299E-03
(PID.TID 0000.0001) %MON forcing_fv_max               =   3.2333387682835E-02
(PID.TID 0000.0001) %MON forcing_fv_min               =  -1.0113737235467E-01
(PID.TID 0000.0001) %MON forcing_fv_mean              =  -4.3575662652015E-02
(PID.TID 0000.0001) %MON forcing_fv_sd                =   2.5799076772166E-02
(PID.TID 0000.0001) %MON forcing_fv_del2              =   8.3324020108499E-04
(PID.TID 0000.0001) %MON advcfl_uvel_max              =   3.5232207978516E-03
(PID.TID 0000.0001) %MON advcfl_vvel_max              =   1.9751546182656E-03
(PID.TID 0000.0001) %MON advcfl_wvel_max              =   4.6489878665589E-03
(PID.TID 0000.0001) %MON advcfl_W_hf_max              =   5.8112348331986E-03
(PID.TID 0000.0001) %MON pe_b_mean                    =   6.9617460632271E-06
(PID.TID 0000.0001) %MON ke_max                       =   2.3558648617611E-02
(PID.TID 0000.0001) %MON ke_mean                      =   4.4996560326088E-05
(PID.TID 0000.0001) %MON ke_vol                       =   3.6027486600263E+16
(PID.TID 0000.0001) %MON vort_r_min                   =  -3.8316639616694E-07
(PID.TID 0000.0001) %MON vort_r_max                   =   7.4460803717393E-07
(PID.TID 0000.0001) %MON vort_a_mean                  =   6.2114138811197E-05
(PID.TID 0000.0001) %MON vort_a_sd                    =   1.9250213771195E-05
(PID.TID 0000.0001) %MON vort_p_mean                  =   7.8095197769435E-05
(PID.TID 0000.0001) %MON vort_p_sd                    =   5.6521529119772E-05
(PID.TID 0000.0001) %MON surfExpan_theta_mean         =   1.6776307120986E-07
(PID.TID 0000.0001) %MON surfExpan_salt_mean          =  -2.9361865396565E-08
(PID.TID 0000.0001) // =======================================================
(PID.TID 0000.0001) // End MONITOR dynamic field statistics
(PID.TID 0000.0001) // =======================================================
 EXTERNAL_FIELDS_LOAD,        18 : iP,iLd,i0,i1=    2    3    2    3 ; Wght=  0.5000000000  0.5000000000
 cg2d: Sum(rhs),rhsMax =   5.41788836017076E-14  5.40493562363206E-01
(PID.TID 0000.0001)                    cg2d_init_res =    5.98209671500561E-02
(PID.TID 0000.0001)                       cg2d_iters =    44
(PID.TID 0000.0001)                         cg2d_res =    8.13331794908276E-14
(PID.TID 0000.0001) // =======================================================
(PID.TID 0000.0001) // Begin MONITOR dynamic field statistics
(PID.TID 0000.0001) // =======================================================
(PID.TID 0000.0001) %MON time_tsnumber                =                    19
(PID.TID 0000.0001) %MON time_secondsf                =   9.0000000000000E+04
(PID.TID 0000.0001) %MON dynstat_eta_max              =   1.5039787737065E-01
(PID.TID 0000.0001) %MON dynstat_eta_min              =  -2.1784387992801E-01
(PID.TID 0000.0001) %MON dynstat_eta_mean             =  -2.8953581299921E-16
(PID.TID 0000.0001) %MON dynstat_eta_sd               =   7.5962905455143E-02
(PID.TID 0000.0001) %MON dynstat_eta_del2             =   1.4464396253217E-03
(PID.TID 0000.0001) %MON dynstat_uvel_max             =   2.8204503746949E-02
(PID.TID 0000.0001) %MON dynstat_uvel_min             =  -2.0746394601771E-01
(PID.TID 0000.0001) %MON dynstat_uvel_mean            =  -5.3157861473843E-05
(PID.TID 0000.0001) %MON dynstat_uvel_sd              =   8.0700334149847E-03
(PID.TID 0000.0001) %MON dynstat_uvel_del2            =   2.2096074005458E-04
(PID.TID 0000.0001) %MON dynstat_vvel_max             =   1.1598390650656E-01
(PID.TID 0000.0001) %MON dynstat_vvel_min             =  -1.1641848636182E-01
(PID.TID 0000.0001) %MON dynstat_vvel_mean            =   2.0997304860689E-05
(PID.TID 0000.0001) %MON dynstat_vvel_sd              =   5.5009918476164E-03
(PID.TID 0000.0001) %MON dynstat_vvel_del2            =   1.7075459218275E-04
(PID.TID 0000.0001) %MON dynstat_wvel_max             =   7.5646597721477E-05
(PID.TID 0000.0001) %MON dynstat_wvel_min             =  -1.6209798921564E-04
(PID.TID 0000.0001) %MON dynstat_wvel_mean            =  -9.0038297538675E-22
(PID.TID 0000.0001) %MON dynstat_wvel_sd              =   2.1799530131996E-05
(PID.TID 0000.0001) %MON dynstat_wvel_del2            =   3.9355892069220E-07
(PID.TID 0000.0001) %MON dynstat_theta_max            =   2.6159332930447E+01
(PID.TID 0000.0001) %MON dynstat_theta_min            =   1.8064725972102E+00
(PID.TID 0000.0001) %MON dynstat_theta_mean           =   5.4787056116064E+00
(PID.TID 0000.0001) %MON dynstat_theta_sd             =   4.5933673590726E+00
(PID.TID 0000.0001) %MON dynstat_theta_del2           =   3.2309996732100E-03
(PID.TID 0000.0001) %MON dynstat_salt_max             =   3.7405888934497E+01
(PID.TID 0000.0001) %MON dynstat_salt_min             =   3.4726840700490E+01
(PID.TID 0000.0001) %MON dynstat_salt_mean            =   3.5157577392839E+01
(PID.TID 0000.0001) %MON dynstat_salt_sd              =   4.1382098461872E-01
(PID.TID 0000.0001) %MON dynstat_salt_del2            =   7.9784948563484E-04
(PID.TID 0000.0001) %MON forcing_qnet_max             =   5.5814346313477E+01
(PID.TID 0000.0001) %MON forcing_qnet_min             =  -1.7021042633057E+02
(PID.TID 0000.0001) %MON forcing_qnet_mean            =  -6.8873210229999E+01
(PID.TID 0000.0001) %MON forcing_qnet_sd              =   4.9775139382117E+01
(PID.TID 0000.0001) %MON forcing_qnet_del2            =   2.0206634322700E+00
(PID.TID 0000.0001) %MON forcing_qsw_max              =  -1.3156417846680E+02
(PID.TID 0000.0001) %MON forcing_qsw_min              =  -3.1702488708496E+02
(PID.TID 0000.0001) %MON forcing_qsw_mean             =  -2.5227013325255E+02
(PID.TID 0000.0001) %MON forcing_qsw_sd               =   4.1801383341981E+01
(PID.TID 0000.0001) %MON forcing_qsw_del2             =   1.5001657593271E+00
(PID.TID 0000.0001) %MON forcing_empmr_max            =   6.9994715302357E-05
(PID.TID 0000.0001) %MON forcing_empmr_min            =   1.4408303785096E-05
(PID.TID 0000.0001) %MON forcing_empmr_mean           =   4.3942400177846E-05
(PID.TID 0000.0001) %MON forcing_empmr_sd             =   1.1599098392661E-05
(PID.TID 0000.0001) %MON forcing_empmr_del2           =   6.3389058384526E-07
(PID.TID 0000.0001) %MON forcing_fu_max               =   2.0525399595499E-01
(PID.TID 0000.0001) %MON forcing_fu_min               =  -1.2709509953856E-01
(PID.TID 0000.0001) %MON forcing_fu_mean              =  -3.6159654134226E-02
(PID.TID 0000.0001) %MON forcing_fu_sd                =   4.2059098885313E-02
(PID.TID 0000.0001) %MON forcing_fu_del2              =   1.9364603310908E-03
(PID.TID 0000.0001) %MON forcing_fv_max               =   3.1886491924524E-02
(PID.TID 0000.0001) %MON forcing_fv_min               =  -1.0375389456749E-01
(PID.TID 0000.0001) %MON forcing_fv_mean              =  -4.4471113572464E-02
(PID.TID 0000.0001) %MON forcing_fv_sd                =   2.6426738410251E-02
(PID.TID 0000.0001) %MON forcing_fv_del2              =   8.4118233110319E-04
(PID.TID 0000.0001) %MON advcfl_uvel_max              =   3.4773992899321E-03
(PID.TID 0000.0001) %MON advcfl_vvel_max              =   1.8848537310047E-03
(PID.TID 0000.0001) %MON advcfl_wvel_max              =   4.7384093757278E-03
(PID.TID 0000.0001) %MON advcfl_W_hf_max              =   5.9230117196598E-03
(PID.TID 0000.0001) %MON pe_b_mean                    =   6.9556103110076E-06
(PID.TID 0000.0001) %MON ke_max                       =   2.3377015268618E-02
(PID.TID 0000.0001) %MON ke_mean                      =   4.2617787925193E-05
(PID.TID 0000.0001) %MON ke_vol                       =   3.6027486600263E+16
(PID.TID 0000.0001) %MON vort_r_min                   =  -3.7478972891143E-07
(PID.TID 0000.0001) %MON vort_r_max                   =   7.3068203200349E-07
(PID.TID 0000.0001) %MON vort_a_mean                  =   6.2114138811197E-05
(PID.TID 0000.0001) %MON vort_a_sd                    =   1.9250213220761E-05
(PID.TID 0000.0001) %MON vort_p_mean                  =   7.8095197769436E-05
(PID.TID 0000.0001) %MON vort_p_sd                    =   5.6522129316888E-05
(PID.TID 0000.0001) %MON surfExpan_theta_mean         =  -1.3978562350384E-07
(PID.TID 0000.0001) %MON surfExpan_salt_mean          =   3.4903454139852E-09
(PID.TID 0000.0001) // =======================================================
(PID.TID 0000.0001) // End MONITOR dynamic field statistics
(PID.TID 0000.0001) // =======================================================
 EXTERNAL_FIELDS_LOAD,        19 : iP,iLd,i0,i1=    2    3    2    3 ; Wght=  0.4166666667  0.5833333333
 cg2d: Sum(rhs),rhsMax =   6.03961325396085E-14  5.38227397471767E-01
(PID.TID 0000.0001)                    cg2d_init_res =    5.89757733854277E-02
(PID.TID 0000.0001)                       cg2d_iters =    44
(PID.TID 0000.0001)                         cg2d_res =    9.50262338606953E-14
(PID.TID 0000.0001) // =======================================================
(PID.TID 0000.0001) // Begin MONITOR dynamic field statistics
(PID.TID 0000.0001) // =======================================================
(PID.TID 0000.0001) %MON time_tsnumber                =                    20
(PID.TID 0000.0001) %MON time_secondsf                =   9.3600000000000E+04
(PID.TID 0000.0001) %MON dynstat_eta_max              =   1.4945425989267E-01
(PID.TID 0000.0001) %MON dynstat_eta_min              =  -2.1789713504749E-01
(PID.TID 0000.0001) %MON dynstat_eta_mean             =  -2.5093103793265E-16
(PID.TID 0000.0001) %MON dynstat_eta_sd               =   7.5851913352187E-02
(PID.TID 0000.0001) %MON dynstat_eta_del2             =   1.4631897765532E-03
(PID.TID 0000.0001) %MON dynstat_uvel_max             =   2.8029413177268E-02
(PID.TID 0000.0001) %MON dynstat_uvel_min             =  -2.0342878973580E-01
(PID.TID 0000.0001) %MON dynstat_uvel_mean            =  -5.5301320980659E-05
(PID.TID 0000.0001) %MON dynstat_uvel_sd              =   7.8016783328866E-03
(PID.TID 0000.0001) %MON dynstat_uvel_del2            =   2.1385045304796E-04
(PID.TID 0000.0001) %MON dynstat_vvel_max             =   1.2298750713899E-01
(PID.TID 0000.0001) %MON dynstat_vvel_min             =  -1.1094364210905E-01
(PID.TID 0000.0001) %MON dynstat_vvel_mean            =   5.0019411387624E-05
(PID.TID 0000.0001) %MON dynstat_vvel_sd              =   5.4538770948320E-03
(PID.TID 0000.0001) %MON dynstat_vvel_del2            =   1.6905433953836E-04
(PID.TID 0000.0001) %MON dynstat_wvel_max             =   6.2036072710504E-05
(PID.TID 0000.0001) %MON dynstat_wvel_min             =  -1.5890151270188E-04
(PID.TID 0000.0001) %MON dynstat_wvel_mean            =  -5.6273935961672E-22
(PID.TID 0000.0001) %MON dynstat_wvel_sd              =   2.0830253222593E-05
(PID.TID 0000.0001) %MON dynstat_wvel_del2            =   3.8025201127025E-07
(PID.TID 0000.0001) %MON dynstat_theta_max            =   2.6165173499014E+01
(PID.TID 0000.0001) %MON dynstat_theta_min            =   1.8064755649226E+00
(PID.TID 0000.0001) %MON dynstat_theta_mean           =   5.4787208341520E+00
(PID.TID 0000.0001) %MON dynstat_theta_sd             =   4.5934172756644E+00
(PID.TID 0000.0001) %MON dynstat_theta_del2           =   3.2349210377244E-03
(PID.TID 0000.0001) %MON dynstat_salt_max             =   3.7406255805862E+01
(PID.TID 0000.0001) %MON dynstat_salt_min             =   3.4726848060388E+01
(PID.TID 0000.0001) %MON dynstat_salt_mean            =   3.5157578794032E+01
(PID.TID 0000.0001) %MON dynstat_salt_sd              =   4.1382447437800E-01
(PID.TID 0000.0001) %MON dynstat_salt_del2            =   7.9805000069754E-04
(PID.TID 0000.0001) %MON forcing_qnet_max             =   5.7280787150065E+01
(PID.TID 0000.0001) %MON forcing_qnet_min             =  -1.7148053487142E+02
(PID.TID 0000.0001) %MON forcing_qnet_mean            =  -6.7917534930019E+01
(PID.TID 0000.0001) %MON forcing_qnet_sd              =   4.9562900759258E+01
(PID.TID 0000.0001) %MON forcing_qnet_del2            =   2.0210411432933E+00
(PID.TID 0000.0001) %MON forcing_qsw_max              =  -1.3106833394368E+02
(PID.TID 0000.0001) %MON forcing_qsw_min              =  -3.1762956492106E+02
(PID.TID 0000.0001) %MON forcing_qsw_mean             =  -2.5271815664967E+02
(PID.TID 0000.0001) %MON forcing_qsw_sd               =   4.1764415005147E+01
(PID.TID 0000.0001) %MON forcing_qsw_del2             =   1.4975235240470E+00
(PID.TID 0000.0001) %MON forcing_empmr_max            =   7.0559226872765E-05
(PID.TID 0000.0001) %MON forcing_empmr_min            =   1.4493037263907E-05
(PID.TID 0000.0001) %MON forcing_empmr_mean           =   4.4363672689087E-05
(PID.TID 0000.0001) %MON forcing_empmr_sd             =   1.1610819012107E-05
(PID.TID 0000.0001) %MON forcing_empmr_del2           =   6.3674250569282E-07
(PID.TID 0000.0001) %MON forcing_fu_max               =   1.9245744620760E-01
(PID.TID 0000.0001) %MON forcing_fu_min               =  -1.2815452553332E-01
(PID.TID 0000.0001) %MON forcing_fu_mean              =  -3.6899526675781E-02
(PID.TID 0000.0001) %MON forcing_fu_sd                =   4.1985994234314E-02
(PID.TID 0000.0001) %MON forcing_fu_del2              =   1.9311692904480E-03
(PID.TID 0000.0001) %MON forcing_fv_max               =   3.1439596166213E-02
(PID.TID 0000.0001) %MON forcing_fv_min               =  -1.0662912329038E-01
(PID.TID 0000.0001) %MON forcing_fv_mean              =  -4.5366564492913E-02
(PID.TID 0000.0001) %MON forcing_fv_sd                =   2.7100792429513E-02
(PID.TID 0000.0001) %MON forcing_fv_del2              =   8.5390213196878E-04
(PID.TID 0000.0001) %MON advcfl_uvel_max              =   3.4097641665345E-03
(PID.TID 0000.0001) %MON advcfl_vvel_max              =   1.9912083462195E-03
(PID.TID 0000.0001) %MON advcfl_wvel_max              =   4.7908696904827E-03
(PID.TID 0000.0001) %MON advcfl_W_hf_max              =   5.9885871131034E-03
(PID.TID 0000.0001) %MON pe_b_mean                    =   6.9352989814240E-06
(PID.TID 0000.0001) %MON ke_max                       =   2.2961016139015E-02
(PID.TID 0000.0001) %MON ke_mean                      =   4.0474259470597E-05
(PID.TID 0000.0001) %MON ke_vol                       =   3.6027486600263E+16
(PID.TID 0000.0001) %MON vort_r_min                   =  -3.6544020249277E-07
(PID.TID 0000.0001) %MON vort_r_max                   =   7.1509891211555E-07
(PID.TID 0000.0001) %MON vort_a_mean                  =   6.2114138811197E-05
(PID.TID 0000.0001) %MON vort_a_sd                    =   1.9250208251092E-05
(PID.TID 0000.0001) %MON vort_p_mean                  =   7.8095197769435E-05
(PID.TID 0000.0001) %MON vort_p_sd                    =   5.6522658834244E-05
(PID.TID 0000.0001) %MON surfExpan_theta_mean         =  -3.4003543381777E-07
(PID.TID 0000.0001) %MON surfExpan_salt_mean          =   3.1937147794464E-08
(PID.TID 0000.0001) // =======================================================
(PID.TID 0000.0001) // End MONITOR dynamic field statistics
(PID.TID 0000.0001) // =======================================================
(PID.TID 0000.0001) %CHECKPOINT        20 ckptA
(PID.TID 0000.0001)   Seconds in section "ALL                    [THE_MODEL_MAIN]":
(PID.TID 0000.0001)           User time:   2.2700000000000000
(PID.TID 0000.0001)         System time:  2.00000000000000004E-002
(PID.TID 0000.0001)     Wall clock time:   2.3288910388946533
(PID.TID 0000.0001)          No. starts:           1
(PID.TID 0000.0001)           No. stops:           1
(PID.TID 0000.0001)   Seconds in section "INITIALISE_FIXED       [THE_MODEL_MAIN]":
(PID.TID 0000.0001)           User time:  0.10000000000000001
(PID.TID 0000.0001)         System time:  1.00000000000000002E-002
(PID.TID 0000.0001)     Wall clock time:  0.12151002883911133
(PID.TID 0000.0001)          No. starts:           1
(PID.TID 0000.0001)           No. stops:           1
(PID.TID 0000.0001)   Seconds in section "THE_MAIN_LOOP          [THE_MODEL_MAIN]":
(PID.TID 0000.0001)           User time:   2.1699999999999999
(PID.TID 0000.0001)         System time:  1.00000000000000002E-002
(PID.TID 0000.0001)     Wall clock time:   2.2073469161987305
(PID.TID 0000.0001)          No. starts:           1
(PID.TID 0000.0001)           No. stops:           1
(PID.TID 0000.0001)   Seconds in section "INITIALISE_VARIA    [THE_MAIN_LOOP]":
(PID.TID 0000.0001)           User time:  1.99999999999999900E-002
(PID.TID 0000.0001)         System time:   0.0000000000000000
(PID.TID 0000.0001)     Wall clock time:  3.81510257720947266E-002
(PID.TID 0000.0001)          No. starts:           1
(PID.TID 0000.0001)           No. stops:           1
(PID.TID 0000.0001)   Seconds in section "MAIN LOOP           [THE_MAIN_LOOP]":
(PID.TID 0000.0001)           User time:   2.1499999999999999
(PID.TID 0000.0001)         System time:  1.00000000000000002E-002
(PID.TID 0000.0001)     Wall clock time:   2.1691660881042480
(PID.TID 0000.0001)          No. starts:           1
(PID.TID 0000.0001)           No. stops:           1
(PID.TID 0000.0001)   Seconds in section "FORWARD_STEP        [THE_MAIN_LOOP]":
(PID.TID 0000.0001)           User time:   2.1500000000000004
(PID.TID 0000.0001)         System time:  9.99999999999999847E-003
(PID.TID 0000.0001)     Wall clock time:   2.1689903736114502
(PID.TID 0000.0001)          No. starts:          20
(PID.TID 0000.0001)           No. stops:          20
(PID.TID 0000.0001)   Seconds in section "DO_STATEVARS_DIAGS  [FORWARD_STEP]":
(PID.TID 0000.0001)           User time:   0.0000000000000000
(PID.TID 0000.0001)         System time:   0.0000000000000000
(PID.TID 0000.0001)     Wall clock time:  5.86748123168945313E-004
(PID.TID 0000.0001)          No. starts:          40
(PID.TID 0000.0001)           No. stops:          40
(PID.TID 0000.0001)   Seconds in section "LOAD_FIELDS_DRIVER  [FORWARD_STEP]":
(PID.TID 0000.0001)           User time:   0.0000000000000000
(PID.TID 0000.0001)         System time:   0.0000000000000000
(PID.TID 0000.0001)     Wall clock time:  5.58400154113769531E-003
(PID.TID 0000.0001)          No. starts:          20
(PID.TID 0000.0001)           No. stops:          20
(PID.TID 0000.0001)   Seconds in section "EXTERNAL_FLDS_LOAD [LOAD_FLDS_DRIVER]":
(PID.TID 0000.0001)           User time:   0.0000000000000000
(PID.TID 0000.0001)         System time:   0.0000000000000000
(PID.TID 0000.0001)     Wall clock time:  5.23281097412109375E-003
(PID.TID 0000.0001)          No. starts:          20
(PID.TID 0000.0001)           No. stops:          20
(PID.TID 0000.0001)   Seconds in section "DO_ATMOSPHERIC_PHYS [FORWARD_STEP]":
(PID.TID 0000.0001)           User time:   0.0000000000000000
(PID.TID 0000.0001)         System time:   0.0000000000000000
(PID.TID 0000.0001)     Wall clock time:  1.77621841430664063E-004
(PID.TID 0000.0001)          No. starts:          20
(PID.TID 0000.0001)           No. stops:          20
(PID.TID 0000.0001)   Seconds in section "DO_OCEANIC_PHYS     [FORWARD_STEP]":
(PID.TID 0000.0001)           User time:  0.56000000000000050
(PID.TID 0000.0001)         System time:   0.0000000000000000
(PID.TID 0000.0001)     Wall clock time:  0.55410528182983398
(PID.TID 0000.0001)          No. starts:          20
(PID.TID 0000.0001)           No. stops:          20
(PID.TID 0000.0001)   Seconds in section "KPP_CALC [DO_OCEANIC_PHYS]":
(PID.TID 0000.0001)           User time:  0.54000000000000004
(PID.TID 0000.0001)         System time:   0.0000000000000000
(PID.TID 0000.0001)     Wall clock time:  0.51955032348632813
(PID.TID 0000.0001)          No. starts:          80
(PID.TID 0000.0001)           No. stops:          80
(PID.TID 0000.0001)   Seconds in section "THERMODYNAMICS      [FORWARD_STEP]":
(PID.TID 0000.0001)           User time:  0.39999999999999991
(PID.TID 0000.0001)         System time:   0.0000000000000000
(PID.TID 0000.0001)     Wall clock time:  0.39898777008056641
(PID.TID 0000.0001)          No. starts:          20
(PID.TID 0000.0001)           No. stops:          20
(PID.TID 0000.0001)   Seconds in section "DYNAMICS            [FORWARD_STEP]":
(PID.TID 0000.0001)           User time:  0.91000000000000059
(PID.TID 0000.0001)         System time:   0.0000000000000000
(PID.TID 0000.0001)     Wall clock time:  0.91594767570495605
(PID.TID 0000.0001)          No. starts:          20
(PID.TID 0000.0001)           No. stops:          20
(PID.TID 0000.0001)   Seconds in section "SOLVE_FOR_PRESSURE  [FORWARD_STEP]":
(PID.TID 0000.0001)           User time:  6.99999999999993960E-002
(PID.TID 0000.0001)         System time:   0.0000000000000000
(PID.TID 0000.0001)     Wall clock time:  6.97259902954101563E-002
(PID.TID 0000.0001)          No. starts:          20
(PID.TID 0000.0001)           No. stops:          20
(PID.TID 0000.0001)   Seconds in section "MOM_CORRECTION_STEP [FORWARD_STEP]":
(PID.TID 0000.0001)           User time:  3.00000000000002487E-002
(PID.TID 0000.0001)         System time:   0.0000000000000000
(PID.TID 0000.0001)     Wall clock time:  3.06930541992187500E-002
(PID.TID 0000.0001)          No. starts:          20
(PID.TID 0000.0001)           No. stops:          20
(PID.TID 0000.0001)   Seconds in section "TRC_CORRECTION_STEP [FORWARD_STEP]":
(PID.TID 0000.0001)           User time:  2.00000000000000178E-002
(PID.TID 0000.0001)         System time:   0.0000000000000000
(PID.TID 0000.0001)     Wall clock time:  9.96160507202148438E-003
(PID.TID 0000.0001)          No. starts:          20
(PID.TID 0000.0001)           No. stops:          20
(PID.TID 0000.0001)   Seconds in section "BLOCKING_EXCHANGES  [FORWARD_STEP]":
(PID.TID 0000.0001)           User time:  2.00000000000000178E-002
(PID.TID 0000.0001)         System time:   0.0000000000000000
(PID.TID 0000.0001)     Wall clock time:  4.82063293457031250E-002
(PID.TID 0000.0001)          No. starts:          20
(PID.TID 0000.0001)           No. stops:          20
(PID.TID 0000.0001)   Seconds in section "DO_STATEVARS_TAVE   [FORWARD_STEP]":
(PID.TID 0000.0001)           User time:   0.0000000000000000
(PID.TID 0000.0001)         System time:   0.0000000000000000
(PID.TID 0000.0001)     Wall clock time:  1.78098678588867188E-004
(PID.TID 0000.0001)          No. starts:          20
(PID.TID 0000.0001)           No. stops:          20
(PID.TID 0000.0001)   Seconds in section "MONITOR             [FORWARD_STEP]":
(PID.TID 0000.0001)           User time:  0.13000000000000034
(PID.TID 0000.0001)         System time:   0.0000000000000000
(PID.TID 0000.0001)     Wall clock time:  0.10700464248657227
(PID.TID 0000.0001)          No. starts:          20
(PID.TID 0000.0001)           No. stops:          20
(PID.TID 0000.0001)   Seconds in section "DO_THE_MODEL_IO     [FORWARD_STEP]":
(PID.TID 0000.0001)           User time:  9.99999999999978684E-003
(PID.TID 0000.0001)         System time:  9.99999999999999847E-003
(PID.TID 0000.0001)     Wall clock time:  1.70595645904541016E-002
(PID.TID 0000.0001)          No. starts:          20
(PID.TID 0000.0001)           No. stops:          20
(PID.TID 0000.0001)   Seconds in section "DO_WRITE_PICKUP     [FORWARD_STEP]":
(PID.TID 0000.0001)           User time:   0.0000000000000000
(PID.TID 0000.0001)         System time:   0.0000000000000000
(PID.TID 0000.0001)     Wall clock time:  7.89737701416015625E-003
(PID.TID 0000.0001)          No. starts:          20
(PID.TID 0000.0001)           No. stops:          20
(PID.TID 0000.0001) // ======================================================
(PID.TID 0000.0001) // Tile <-> Tile communication statistics
(PID.TID 0000.0001) // ======================================================
(PID.TID 0000.0001) // o Tile number: 000001
(PID.TID 0000.0001) //         No. X exchanges =              0
(PID.TID 0000.0001) //            Max. X spins =              0
(PID.TID 0000.0001) //            Min. X spins =     1000000000
(PID.TID 0000.0001) //          Total. X spins =              0
(PID.TID 0000.0001) //            Avg. X spins =       0.00E+00
(PID.TID 0000.0001) //         No. Y exchanges =              0
(PID.TID 0000.0001) //            Max. Y spins =              0
(PID.TID 0000.0001) //            Min. Y spins =     1000000000
(PID.TID 0000.0001) //          Total. Y spins =              0
(PID.TID 0000.0001) //            Avg. Y spins =       0.00E+00
(PID.TID 0000.0001) // o Tile number: 000002
(PID.TID 0000.0001) //         No. X exchanges =              0
(PID.TID 0000.0001) //            Max. X spins =              0
(PID.TID 0000.0001) //            Min. X spins =     1000000000
(PID.TID 0000.0001) //          Total. X spins =              0
(PID.TID 0000.0001) //            Avg. X spins =       0.00E+00
(PID.TID 0000.0001) //         No. Y exchanges =              0
(PID.TID 0000.0001) //            Max. Y spins =              0
(PID.TID 0000.0001) //            Min. Y spins =     1000000000
(PID.TID 0000.0001) //          Total. Y spins =              0
(PID.TID 0000.0001) //            Avg. Y spins =       0.00E+00
(PID.TID 0000.0001) // o Tile number: 000003
(PID.TID 0000.0001) //         No. X exchanges =              0
(PID.TID 0000.0001) //            Max. X spins =              0
(PID.TID 0000.0001) //            Min. X spins =     1000000000
(PID.TID 0000.0001) //          Total. X spins =              0
(PID.TID 0000.0001) //            Avg. X spins =       0.00E+00
(PID.TID 0000.0001) //         No. Y exchanges =              0
(PID.TID 0000.0001) //            Max. Y spins =              0
(PID.TID 0000.0001) //            Min. Y spins =     1000000000
(PID.TID 0000.0001) //          Total. Y spins =              0
(PID.TID 0000.0001) //            Avg. Y spins =       0.00E+00
(PID.TID 0000.0001) // o Tile number: 000004
(PID.TID 0000.0001) //         No. X exchanges =              0
(PID.TID 0000.0001) //            Max. X spins =              0
(PID.TID 0000.0001) //            Min. X spins =     1000000000
(PID.TID 0000.0001) //          Total. X spins =              0
(PID.TID 0000.0001) //            Avg. X spins =       0.00E+00
(PID.TID 0000.0001) //         No. Y exchanges =              0
(PID.TID 0000.0001) //            Max. Y spins =              0
(PID.TID 0000.0001) //            Min. Y spins =     1000000000
(PID.TID 0000.0001) //          Total. Y spins =              0
(PID.TID 0000.0001) //            Avg. Y spins =       0.00E+00
(PID.TID 0000.0001) // o Thread number: 000001
(PID.TID 0000.0001) //            No. barriers =          10046
(PID.TID 0000.0001) //      Max. barrier spins =              1
(PID.TID 0000.0001) //      Min. barrier spins =              1
(PID.TID 0000.0001) //     Total barrier spins =          10046
(PID.TID 0000.0001) //      Avg. barrier spins =       1.00E+00
PROGRAM MAIN: Execution ended Normally
