(PID.TID 0000.0001) 
(PID.TID 0000.0001) // ======================================================
(PID.TID 0000.0001) //                      MITgcm UV
(PID.TID 0000.0001) //                      =========
(PID.TID 0000.0001) // ======================================================
(PID.TID 0000.0001) // execution environment starting up...
(PID.TID 0000.0001) 
(PID.TID 0000.0001) // MITgcmUV version:  checkpoint62a
(PID.TID 0000.0001) // Build user:        jmc
(PID.TID 0000.0001) // Build host:        faulks.csail.mit.edu
(PID.TID 0000.0001) // Build date:        Sat Jan 23 15:07:14 EST 2010
(PID.TID 0000.0001) 
(PID.TID 0000.0001) // =======================================================
(PID.TID 0000.0001) // Execution Environment parameter file "eedata"
(PID.TID 0000.0001) // =======================================================
(PID.TID 0000.0001) ># Example "eedata" file
(PID.TID 0000.0001) ># Lines beginning "#" are comments
(PID.TID 0000.0001) ># nTx - No. threads per process in X
(PID.TID 0000.0001) ># nTy - No. threads per process in Y
(PID.TID 0000.0001) > &EEPARMS
(PID.TID 0000.0001) > &
(PID.TID 0000.0001) ># Note: Some systems use & as the namelist terminator (as shown here).
(PID.TID 0000.0001) >#       Other systems use a / character.
(PID.TID 0000.0001) 
(PID.TID 0000.0001) // =======================================================
(PID.TID 0000.0001) // Computational Grid Specification ( see files "SIZE.h" )
(PID.TID 0000.0001) //                                  ( and "eedata"       )
(PID.TID 0000.0001) // =======================================================
(PID.TID 0000.0001)      nPx =    1 ; /* No. processes in X */
(PID.TID 0000.0001)      nPy =    1 ; /* No. processes in Y */
(PID.TID 0000.0001)      nSx =    4 ; /* No. tiles in X per process */
(PID.TID 0000.0001)      nSy =    1 ; /* No. tiles in Y per process */
(PID.TID 0000.0001)      sNx =   13 ; /* Tile size in X */
(PID.TID 0000.0001)      sNy =    1 ; /* Tile size in Y */
(PID.TID 0000.0001)      OLx =    2 ; /* Tile overlap distance in X */
(PID.TID 0000.0001)      OLy =    2 ; /* Tile overlap distance in Y */
(PID.TID 0000.0001)      nTx =    1 ; /* No. threads in X per process */
(PID.TID 0000.0001)      nTy =    1 ; /* No. threads in Y per process */
(PID.TID 0000.0001)       Nr =   50 ; /* No. levels in the vertical   */
(PID.TID 0000.0001)       Nx =   52 ; /* Total domain size in X ( = nPx*nSx*sNx ) */
(PID.TID 0000.0001)       Ny =    1 ; /* Total domain size in Y ( = nPy*nSy*sNy ) */
(PID.TID 0000.0001)   nTiles =    4 ; /* Total no. tiles per process ( = nSx*nSy ) */
(PID.TID 0000.0001)   nProcs =    1 ; /* Total no. processes ( = nPx*nPy ) */
(PID.TID 0000.0001) nThreads =    1 ; /* Total no. threads per process ( = nTx*nTy ) */
(PID.TID 0000.0001) usingMPI =    F ; /* Flag used to control whether MPI is in use */
(PID.TID 0000.0001)                   /*  note: To execute a program with MPI calls */
(PID.TID 0000.0001)                   /*  it must be launched appropriately e.g     */
(PID.TID 0000.0001)                   /*  "mpirun -np 64 ......"                    */
(PID.TID 0000.0001) useCoupler=    F ;/* Flag used to control communications with   */
(PID.TID 0000.0001)                   /*  other model components, through a coupler */
(PID.TID 0000.0001) printMapIncludesZeros=    F ; /* print zeros in Std.Output maps */
(PID.TID 0000.0001) maxLengthPrt1D=   65 /* maxLength of 1D array printed to StdOut */
(PID.TID 0000.0001) 
(PID.TID 0000.0001) // ======================================================
(PID.TID 0000.0001) // Mapping of tiles to threads
(PID.TID 0000.0001) // ======================================================
(PID.TID 0000.0001) // -o- Thread   1, tiles (   1:   4,   1:   1)
(PID.TID 0000.0001) 
(PID.TID 0000.0001) // ======================================================
(PID.TID 0000.0001) // Tile <-> Tile connectvity table
(PID.TID 0000.0001) // ======================================================
(PID.TID 0000.0001) // Tile number: 000001 (process no. = 000001)
(PID.TID 0000.0001) //        WEST: Tile = 000004, Process = 000001, Comm = put
(PID.TID 0000.0001) //                bi = 000004, bj = 000001
(PID.TID 0000.0001) //        EAST: Tile = 000002, Process = 000001, Comm = put
(PID.TID 0000.0001) //                bi = 000002, bj = 000001
(PID.TID 0000.0001) //       SOUTH: Tile = 000001, Process = 000001, Comm = put
(PID.TID 0000.0001) //                bi = 000001, bj = 000001
(PID.TID 0000.0001) //       NORTH: Tile = 000001, Process = 000001, Comm = put
(PID.TID 0000.0001) //                bi = 000001, bj = 000001
(PID.TID 0000.0001) // Tile number: 000002 (process no. = 000001)
(PID.TID 0000.0001) //        WEST: Tile = 000001, Process = 000001, Comm = put
(PID.TID 0000.0001) //                bi = 000001, bj = 000001
(PID.TID 0000.0001) //        EAST: Tile = 000003, Process = 000001, Comm = put
(PID.TID 0000.0001) //                bi = 000003, bj = 000001
(PID.TID 0000.0001) //       SOUTH: Tile = 000002, Process = 000001, Comm = put
(PID.TID 0000.0001) //                bi = 000002, bj = 000001
(PID.TID 0000.0001) //       NORTH: Tile = 000002, Process = 000001, Comm = put
(PID.TID 0000.0001) //                bi = 000002, bj = 000001
(PID.TID 0000.0001) // Tile number: 000003 (process no. = 000001)
(PID.TID 0000.0001) //        WEST: Tile = 000002, Process = 000001, Comm = put
(PID.TID 0000.0001) //                bi = 000002, bj = 000001
(PID.TID 0000.0001) //        EAST: Tile = 000004, Process = 000001, Comm = put
(PID.TID 0000.0001) //                bi = 000004, bj = 000001
(PID.TID 0000.0001) //       SOUTH: Tile = 000003, Process = 000001, Comm = put
(PID.TID 0000.0001) //                bi = 000003, bj = 000001
(PID.TID 0000.0001) //       NORTH: Tile = 000003, Process = 000001, Comm = put
(PID.TID 0000.0001) //                bi = 000003, bj = 000001
(PID.TID 0000.0001) // Tile number: 000004 (process no. = 000001)
(PID.TID 0000.0001) //        WEST: Tile = 000003, Process = 000001, Comm = put
(PID.TID 0000.0001) //                bi = 000003, bj = 000001
(PID.TID 0000.0001) //        EAST: Tile = 000001, Process = 000001, Comm = put
(PID.TID 0000.0001) //                bi = 000001, bj = 000001
(PID.TID 0000.0001) //       SOUTH: Tile = 000004, Process = 000001, Comm = put
(PID.TID 0000.0001) //                bi = 000004, bj = 000001
(PID.TID 0000.0001) //       NORTH: Tile = 000004, Process = 000001, Comm = put
(PID.TID 0000.0001) //                bi = 000004, bj = 000001
(PID.TID 0000.0001) 
(PID.TID 0000.0001) DEBUG_MSG: ENTERED S/R THE_MODEL_MAIN
(PID.TID 0000.0001) DEBUG_MSG: CALLING S/R INITIALISE_FIXED
(PID.TID 0000.0001) // =======================================================
(PID.TID 0000.0001) // Model parameter file "data"
(PID.TID 0000.0001) // =======================================================
(PID.TID 0000.0001) ># ====================
(PID.TID 0000.0001) ># | Model parameters |
(PID.TID 0000.0001) ># ====================
(PID.TID 0000.0001) >#
(PID.TID 0000.0001) ># Continuous equation parameters
(PID.TID 0000.0001) > &PARM01
(PID.TID 0000.0001) > Tref= 50*10.,
(PID.TID 0000.0001) > sRef= 50*35.,
(PID.TID 0000.0001) > viscAr=1.E-6,
(PID.TID 0000.0001) > viscAh=1.E-6,
(PID.TID 0000.0001) > no_slip_sides=.FALSE.,
(PID.TID 0000.0001) > no_slip_bottom=.FALSE.,
(PID.TID 0000.0001) > f0=0.0,
(PID.TID 0000.0001) > beta=0.E-11,
(PID.TID 0000.0001) > eosType='LINEAR',
(PID.TID 0000.0001) > tAlpha=0.E-4,
(PID.TID 0000.0001) > sBeta =0.E-4,
(PID.TID 0000.0001) > gravity=10.,
(PID.TID 0000.0001) > implicitFreeSurface=.TRUE.,
(PID.TID 0000.0001) > exactConserv=.TRUE.
(PID.TID 0000.0001) > implicSurfPress=0.5,
(PID.TID 0000.0001) > implicDiv2DFlow=0.5,
(PID.TID 0000.0001) > nonHydrostatic=.TRUE.,
(PID.TID 0000.0001) > selectNHfreeSurf=1,
(PID.TID 0000.0001) > saltStepping=.FALSE.,
(PID.TID 0000.0001) > tempStepping=.FALSE.,
(PID.TID 0000.0001) > hFacMin=0.2,
(PID.TID 0000.0001) > readBinaryPrec=64,
(PID.TID 0000.0001) > writeBinaryPrec=64,
(PID.TID 0000.0001) > &
(PID.TID 0000.0001) >
(PID.TID 0000.0001) ># Elliptic solver parameters
(PID.TID 0000.0001) > &PARM02
(PID.TID 0000.0001) > cg2dMaxIters=100,
(PID.TID 0000.0001) > cg2dTargetResidual=1.E-13,
(PID.TID 0000.0001) > cg3dMaxIters=200,
(PID.TID 0000.0001) > cg3dTargetResidual=1.E-11,
(PID.TID 0000.0001) > &
(PID.TID 0000.0001) >
(PID.TID 0000.0001) ># Time stepping parameters
(PID.TID 0000.0001) > &PARM03
(PID.TID 0000.0001) > nIter0=0,
(PID.TID 0000.0001) >#endTime=20.,
(PID.TID 0000.0001) > nTimeSteps=12,
(PID.TID 0000.0001) > deltaT=5.e-3,
(PID.TID 0000.0001) > alph_AB=0.5,
(PID.TID 0000.0001) > beta_AB=0.281105,
(PID.TID 0000.0001) > momDissip_In_AB=.FALSE.,
(PID.TID 0000.0001) > pChkptFreq=0.0,
(PID.TID 0000.0001) > chkptFreq=0.0,
(PID.TID 0000.0001) > dumpFreq=5.0,
(PID.TID 0000.0001) > monitorFreq=0.2,
(PID.TID 0000.0001) > monitorSelect=1,
(PID.TID 0000.0001) > monitorFreq=0.005,
(PID.TID 0000.0001) > &
(PID.TID 0000.0001) >
(PID.TID 0000.0001) ># Gridding parameters
(PID.TID 0000.0001) > &PARM04
(PID.TID 0000.0001) > usingCartesianGrid=.TRUE.,
(PID.TID 0000.0001) > delX=52*0.2,
(PID.TID 0000.0001) > delY= 1*0.2,
(PID.TID 0000.0001) > delR=50*0.2,
(PID.TID 0000.0001) > &
(PID.TID 0000.0001) >
(PID.TID 0000.0001) ># Input datasets
(PID.TID 0000.0001) > &PARM05
(PID.TID 0000.0001) > pSurfInitFile='Eta_ini.bin',
(PID.TID 0000.0001) > bathyFile  ='topo_flat.bin',
(PID.TID 0000.0001) > &
(PID.TID 0000.0001) 
(PID.TID 0000.0001) S/R INI_PARMS ; starts to read PARM01
(PID.TID 0000.0001) S/R INI_PARMS ; read PARM01 : OK
(PID.TID 0000.0001) S/R INI_PARMS ; starts to read PARM02
(PID.TID 0000.0001) S/R INI_PARMS ; read PARM02 : OK
(PID.TID 0000.0001) S/R INI_PARMS ; starts to read PARM03
(PID.TID 0000.0001) S/R INI_PARMS ; read PARM03 : OK
(PID.TID 0000.0001) S/R INI_PARMS ; starts to read PARM04
(PID.TID 0000.0001) S/R INI_PARMS ; read PARM04 : OK
(PID.TID 0000.0001) S/R INI_PARMS ; starts to read PARM05
(PID.TID 0000.0001) S/R INI_PARMS ; read PARM05 : OK
(PID.TID 0000.0001)  PACKAGES_BOOT: opening data.pkg
(PID.TID 0000.0001)  OPEN_COPY_DATA_FILE: opening file data.pkg
(PID.TID 0000.0001) // =======================================================
(PID.TID 0000.0001) // Parameter file "data.pkg"
(PID.TID 0000.0001) // =======================================================
(PID.TID 0000.0001) ># Packages
(PID.TID 0000.0001) > &PACKAGES
(PID.TID 0000.0001) > useDiagnostics=.TRUE.,
(PID.TID 0000.0001) > &
(PID.TID 0000.0001) 
(PID.TID 0000.0001)  PACKAGES_BOOT: finished reading data.pkg
(PID.TID 0000.0001)  DIAGNOSTICS_READPARMS: opening data.diagnostics
(PID.TID 0000.0001)  OPEN_COPY_DATA_FILE: opening file data.diagnostics
(PID.TID 0000.0001) // =======================================================
(PID.TID 0000.0001) // Parameter file "data.diagnostics"
(PID.TID 0000.0001) // =======================================================
(PID.TID 0000.0001) ># Diagnostic Package Choices
(PID.TID 0000.0001) >#-----------------
(PID.TID 0000.0001) ># for each output-stream:
(PID.TID 0000.0001) >#  filename(n) : prefix of the output file name (only 8.c long) for outp.stream n
(PID.TID 0000.0001) >#  frequency(n):< 0 : write snap-shot output every |frequency| seconds
(PID.TID 0000.0001) >#               > 0 : write time-average output every frequency seconds
(PID.TID 0000.0001) >#  timePhase(n)     : write at time = timePhase + multiple of |frequency|
(PID.TID 0000.0001) >#  levels(:,n) : list of levels to write to file (Notes: declared as REAL)
(PID.TID 0000.0001) >#                 when this entry is missing, select all common levels of this list
(PID.TID 0000.0001) >#  fields(:,n) : list of diagnostics fields (8.c) (see "available_diagnostics" file
(PID.TID 0000.0001) >#                 for the list of all available diag. in this particular config)
(PID.TID 0000.0001) >#-----------------
(PID.TID 0000.0001) > &diagnostics_list
(PID.TID 0000.0001) ># diag_mnc     = .FALSE.,
(PID.TID 0000.0001) >  frequency(1) = -0.25,
(PID.TID 0000.0001) >  timePhase(1) = 0.,
(PID.TID 0000.0001) >   filename(1) = 'surfDiag',
(PID.TID 0000.0001) >#  levels(1,1) = 1.,
(PID.TID 0000.0001) >   fields(1,1) = 'ETAN    ','ETANSQ  ','DETADT2 ',
(PID.TID 0000.0001) >#  fields(1,2) = 'UVEL    ','VVEL    ','WVEL    ',
(PID.TID 0000.0001) >#  fields(1,3) = 'UVELSQ  ','VVELSQ  ','WVELSQ  ',
(PID.TID 0000.0001) > &
(PID.TID 0000.0001) >
(PID.TID 0000.0001) ># Parameter for Diagnostics of per level statistics:
(PID.TID 0000.0001) >#-----------------
(PID.TID 0000.0001) ># for each output-stream:
(PID.TID 0000.0001) >#  stat_fname(n) : prefix of the output file name (only 8.c long) for outp.stream n
(PID.TID 0000.0001) >#  stat_freq(n):< 0 : write snap-shot output every |stat_freq| seconds
(PID.TID 0000.0001) >#               > 0 : write time-average output every stat_freq seconds
(PID.TID 0000.0001) >#  stat_phase(n)    : write at time = stat_phase + multiple of |stat_freq|
(PID.TID 0000.0001) >#  stat_region(:,n) : list of "regions" (default: 1 region only=global)
(PID.TID 0000.0001) >#  stat_fields(:,n) : list of diagnostics fields (8.c) (see "available_diagnostics.log"
(PID.TID 0000.0001) >#                 file for the list of all available diag. in this particular config)
(PID.TID 0000.0001) >#-----------------
(PID.TID 0000.0001) > &DIAG_STATIS_PARMS
(PID.TID 0000.0001) >#- an example just to check the agreement with MONITOR output:
(PID.TID 0000.0001) > stat_fields(1,1)= 'ETAN    ','ETANSQ  ','DETADT2 ',
(PID.TID 0000.0001) >                   'UVEL    ','WVEL    ',
(PID.TID 0000.0001) >    stat_fname(1)= 'dynStDiag',
(PID.TID 0000.0001) >     stat_freq(1)= -0.1,
(PID.TID 0000.0001) >    stat_phase(1)= 0.,
(PID.TID 0000.0001) > &
(PID.TID 0000.0001) >
(PID.TID 0000.0001) 
(PID.TID 0000.0001) S/R DIAGNOSTICS_READPARMS, read namelist "diagnostics_list": start
(PID.TID 0000.0001) S/R DIAGNOSTICS_READPARMS, read namelist "diagnostics_list": OK
(PID.TID 0000.0001) S/R DIAGNOSTICS_READPARMS, read namelist "DIAG_STATIS_PARMS": start
(PID.TID 0000.0001) S/R DIAGNOSTICS_READPARMS, read namelist "DIAG_STATIS_PARMS": OK
(PID.TID 0000.0001) -----------------------------------------------------
(PID.TID 0000.0001)  DIAGNOSTICS_READPARMS: active diagnostics summary:
(PID.TID 0000.0001) -----------------------------------------------------
(PID.TID 0000.0001) Creating Output Stream: surfDiag
(PID.TID 0000.0001) Output Frequency:         -0.250000 ; Phase:           0.000000
(PID.TID 0000.0001)  Averaging Freq.:          0.000000 , Phase:           0.000000 , Cycle:   1
(PID.TID 0000.0001)  missing value:  1.234567000000E+05 ; for integers:   123456789
(PID.TID 0000.0001)  Levels:    will be set later
(PID.TID 0000.0001)  Fields:    ETAN     ETANSQ   DETADT2
(PID.TID 0000.0001) -----------------------------------------------------
(PID.TID 0000.0001)  DIAGNOSTICS_READPARMS: statistics diags. summary:
(PID.TID 0000.0001) Creating Stats. Output Stream: dynStDiag
(PID.TID 0000.0001) Output Frequency:         -0.100000 ; Phase:           0.000000
(PID.TID 0000.0001)  Regions:   0
(PID.TID 0000.0001)  Fields:    ETAN     ETANSQ   DETADT2  UVEL     WVEL
(PID.TID 0000.0001) -----------------------------------------------------
(PID.TID 0000.0001) 
(PID.TID 0000.0001) SET_PARMS: done
(PID.TID 0000.0001) Enter INI_VERTICAL_GRID: setInterFDr=    T ; setCenterDr=    F
(PID.TID 0000.0001) %MON XC_max                       =   1.0300000000000E+01
(PID.TID 0000.0001) %MON XC_min                       =   1.0000000000000E-01
(PID.TID 0000.0001) %MON XC_mean                      =   5.2000000000000E+00
(PID.TID 0000.0001) %MON XC_sd                        =   3.0016662039607E+00
(PID.TID 0000.0001) %MON XG_max                       =   1.0200000000000E+01
(PID.TID 0000.0001) %MON XG_min                       =   0.0000000000000E+00
(PID.TID 0000.0001) %MON XG_mean                      =   5.1000000000000E+00
(PID.TID 0000.0001) %MON XG_sd                        =   3.0016662039607E+00
(PID.TID 0000.0001) %MON DXC_max                      =   2.0000000000000E-01
(PID.TID 0000.0001) %MON DXC_min                      =   2.0000000000000E-01
(PID.TID 0000.0001) %MON DXC_mean                     =   2.0000000000000E-01
(PID.TID 0000.0001) %MON DXC_sd                       =   0.0000000000000E+00
(PID.TID 0000.0001) %MON DXF_max                      =   2.0000000000000E-01
(PID.TID 0000.0001) %MON DXF_min                      =   2.0000000000000E-01
(PID.TID 0000.0001) %MON DXF_mean                     =   2.0000000000000E-01
(PID.TID 0000.0001) %MON DXF_sd                       =   0.0000000000000E+00
(PID.TID 0000.0001) %MON DXG_max                      =   2.0000000000000E-01
(PID.TID 0000.0001) %MON DXG_min                      =   2.0000000000000E-01
(PID.TID 0000.0001) %MON DXG_mean                     =   2.0000000000000E-01
(PID.TID 0000.0001) %MON DXG_sd                       =   0.0000000000000E+00
(PID.TID 0000.0001) %MON DXV_max                      =   2.0000000000000E-01
(PID.TID 0000.0001) %MON DXV_min                      =   2.0000000000000E-01
(PID.TID 0000.0001) %MON DXV_mean                     =   2.0000000000000E-01
(PID.TID 0000.0001) %MON DXV_sd                       =   0.0000000000000E+00
(PID.TID 0000.0001) %MON YC_max                       =   1.0000000000000E-01
(PID.TID 0000.0001) %MON YC_min                       =   1.0000000000000E-01
(PID.TID 0000.0001) %MON YC_mean                      =   1.0000000000000E-01
(PID.TID 0000.0001) %MON YC_sd                        =   0.0000000000000E+00
(PID.TID 0000.0001) %MON YG_max                       =   0.0000000000000E+00
(PID.TID 0000.0001) %MON YG_min                       =   0.0000000000000E+00
(PID.TID 0000.0001) %MON YG_mean                      =   0.0000000000000E+00
(PID.TID 0000.0001) %MON YG_sd                        =   0.0000000000000E+00
(PID.TID 0000.0001) %MON DYC_max                      =   2.0000000000000E-01
(PID.TID 0000.0001) %MON DYC_min                      =   2.0000000000000E-01
(PID.TID 0000.0001) %MON DYC_mean                     =   2.0000000000000E-01
(PID.TID 0000.0001) %MON DYC_sd                       =   0.0000000000000E+00
(PID.TID 0000.0001) %MON DYF_max                      =   2.0000000000000E-01
(PID.TID 0000.0001) %MON DYF_min                      =   2.0000000000000E-01
(PID.TID 0000.0001) %MON DYF_mean                     =   2.0000000000000E-01
(PID.TID 0000.0001) %MON DYF_sd                       =   0.0000000000000E+00
(PID.TID 0000.0001) %MON DYG_max                      =   2.0000000000000E-01
(PID.TID 0000.0001) %MON DYG_min                      =   2.0000000000000E-01
(PID.TID 0000.0001) %MON DYG_mean                     =   2.0000000000000E-01
(PID.TID 0000.0001) %MON DYG_sd                       =   0.0000000000000E+00
(PID.TID 0000.0001) %MON DYU_max                      =   2.0000000000000E-01
(PID.TID 0000.0001) %MON DYU_min                      =   2.0000000000000E-01
(PID.TID 0000.0001) %MON DYU_mean                     =   2.0000000000000E-01
(PID.TID 0000.0001) %MON DYU_sd                       =   0.0000000000000E+00
(PID.TID 0000.0001) %MON RA_max                       =   4.0000000000000E-02
(PID.TID 0000.0001) %MON RA_min                       =   4.0000000000000E-02
(PID.TID 0000.0001) %MON RA_mean                      =   4.0000000000000E-02
(PID.TID 0000.0001) %MON RA_sd                        =   1.3877787807814E-17
(PID.TID 0000.0001) %MON RAW_max                      =   4.0000000000000E-02
(PID.TID 0000.0001) %MON RAW_min                      =   4.0000000000000E-02
(PID.TID 0000.0001) %MON RAW_mean                     =   4.0000000000000E-02
(PID.TID 0000.0001) %MON RAW_sd                       =   1.3877787807814E-17
(PID.TID 0000.0001) %MON RAS_max                      =   4.0000000000000E-02
(PID.TID 0000.0001) %MON RAS_min                      =   4.0000000000000E-02
(PID.TID 0000.0001) %MON RAS_mean                     =   4.0000000000000E-02
(PID.TID 0000.0001) %MON RAS_sd                       =   1.3877787807814E-17
(PID.TID 0000.0001) %MON RAZ_max                      =   4.0000000000000E-02
(PID.TID 0000.0001) %MON RAZ_min                      =   4.0000000000000E-02
(PID.TID 0000.0001) %MON RAZ_mean                     =   4.0000000000000E-02
(PID.TID 0000.0001) %MON RAZ_sd                       =   1.3877787807814E-17
(PID.TID 0000.0001) %MON AngleCS_max                  =   1.0000000000000E+00
(PID.TID 0000.0001) %MON AngleCS_min                  =   1.0000000000000E+00
(PID.TID 0000.0001) %MON AngleCS_mean                 =   1.0000000000000E+00
(PID.TID 0000.0001) %MON AngleCS_sd                   =   0.0000000000000E+00
(PID.TID 0000.0001) %MON AngleSN_max                  =   0.0000000000000E+00
(PID.TID 0000.0001) %MON AngleSN_min                  =   0.0000000000000E+00
(PID.TID 0000.0001) %MON AngleSN_mean                 =   0.0000000000000E+00
(PID.TID 0000.0001) %MON AngleSN_sd                   =   0.0000000000000E+00
(PID.TID 0000.0001)  MDS_READ_FIELD: opening global file: topo_flat.bin
(PID.TID 0000.0001) // =======================================================
(PID.TID 0000.0001) // Field Model R_low (ini_masks_etc) at iteration          1
(PID.TID 0000.0001) // CMIN =         -9.999999999999996E+00
(PID.TID 0000.0001) // CMAX =         -9.999999999999996E+00
(PID.TID 0000.0001) // CINT =          0.000000000000000E+00
(PID.TID 0000.0001) // SYMBOLS (CMIN->CMAX): -abcdefghijklmnopqrstuvwxyz+
(PID.TID 0000.0001) //                  0.0: .
(PID.TID 0000.0001) // RANGE I (Lo:Hi:Step):(  -1:  54:   1)
(PID.TID 0000.0001) // RANGE J (Lo:Hi:Step):(   3:  -1:  -1)
(PID.TID 0000.0001) // RANGE K (Lo:Hi:Step):(   1:   1:   1)
(PID.TID 0000.0001) // =======================================================
(PID.TID 0000.0001) // =======================================================
(PID.TID 0000.0001) // END OF FIELD                                          =
(PID.TID 0000.0001) // =======================================================
(PID.TID 0000.0001) 
(PID.TID 0000.0001) // =======================================================
(PID.TID 0000.0001) // Field Model Ro_surf (ini_masks_etc) at iteration          1
(PID.TID 0000.0001) // CMIN =          1.276756478318930E-15
(PID.TID 0000.0001) // CMAX =          1.276756478318930E-15
(PID.TID 0000.0001) // CINT =          0.000000000000000E+00
(PID.TID 0000.0001) // SYMBOLS (CMIN->CMAX): -abcdefghijklmnopqrstuvwxyz+
(PID.TID 0000.0001) //                  0.0: .
(PID.TID 0000.0001) // RANGE I (Lo:Hi:Step):(  -1:  54:   1)
(PID.TID 0000.0001) // RANGE J (Lo:Hi:Step):(   3:  -1:  -1)
(PID.TID 0000.0001) // RANGE K (Lo:Hi:Step):(   1:   1:   1)
(PID.TID 0000.0001) // =======================================================
(PID.TID 0000.0001) // =======================================================
(PID.TID 0000.0001) // END OF FIELD                                          =
(PID.TID 0000.0001) // =======================================================
(PID.TID 0000.0001) 
(PID.TID 0000.0001) // =======================================================
(PID.TID 0000.0001) // Field hFacC at iteration          1
(PID.TID 0000.0001) // CMIN =          1.000000000000000E+00
(PID.TID 0000.0001) // CMAX =          1.000000000000000E+00
(PID.TID 0000.0001) // CINT =          0.000000000000000E+00
(PID.TID 0000.0001) // SYMBOLS (CMIN->CMAX): -abcdefghijklmnopqrstuvwxyz+
(PID.TID 0000.0001) //                  0.0: .
(PID.TID 0000.0001) // RANGE I (Lo:Hi:Step):(  -1:  54:   1)
(PID.TID 0000.0001) // RANGE J (Lo:Hi:Step):(   3:  -1:  -1)
(PID.TID 0000.0001) // RANGE K (Lo:Hi:Step):(   1:   1:   1)
(PID.TID 0000.0001) // =======================================================
(PID.TID 0000.0001) // =======================================================
(PID.TID 0000.0001) // END OF FIELD                                          =
(PID.TID 0000.0001) // =======================================================
(PID.TID 0000.0001) 
(PID.TID 0000.0001) // =======================================================
(PID.TID 0000.0001) // Field hFacW at iteration          1
(PID.TID 0000.0001) // CMIN =          1.000000000000000E+00
(PID.TID 0000.0001) // CMAX =          1.000000000000000E+00
(PID.TID 0000.0001) // CINT =          0.000000000000000E+00
(PID.TID 0000.0001) // SYMBOLS (CMIN->CMAX): -abcdefghijklmnopqrstuvwxyz+
(PID.TID 0000.0001) //                  0.0: .
(PID.TID 0000.0001) // RANGE I (Lo:Hi:Step):(  -1:  54:   1)
(PID.TID 0000.0001) // RANGE J (Lo:Hi:Step):(   3:  -1:  -1)
(PID.TID 0000.0001) // RANGE K (Lo:Hi:Step):(   1:   1:   1)
(PID.TID 0000.0001) // =======================================================
(PID.TID 0000.0001) // =======================================================
(PID.TID 0000.0001) // END OF FIELD                                          =
(PID.TID 0000.0001) // =======================================================
(PID.TID 0000.0001) 
(PID.TID 0000.0001) // =======================================================
(PID.TID 0000.0001) // Field hFacS at iteration          1
(PID.TID 0000.0001) // CMIN =          1.000000000000000E+00
(PID.TID 0000.0001) // CMAX =          1.000000000000000E+00
(PID.TID 0000.0001) // CINT =          0.000000000000000E+00
(PID.TID 0000.0001) // SYMBOLS (CMIN->CMAX): -abcdefghijklmnopqrstuvwxyz+
(PID.TID 0000.0001) //                  0.0: .
(PID.TID 0000.0001) // RANGE I (Lo:Hi:Step):(  -1:  54:   1)
(PID.TID 0000.0001) // RANGE J (Lo:Hi:Step):(   3:  -1:  -1)
(PID.TID 0000.0001) // RANGE K (Lo:Hi:Step):(   1:   1:   1)
(PID.TID 0000.0001) // =======================================================
(PID.TID 0000.0001) // =======================================================
(PID.TID 0000.0001) // END OF FIELD                                          =
(PID.TID 0000.0001) // =======================================================
(PID.TID 0000.0001) 
(PID.TID 0000.0001) 
(PID.TID 0000.0001) // ===================================
(PID.TID 0000.0001) // GAD parameters :
(PID.TID 0000.0001) // ===================================
(PID.TID 0000.0001) tempAdvScheme =   /* Temp. Horiz.Advection scheme selector */
(PID.TID 0000.0001)                       2
(PID.TID 0000.0001)     ;
(PID.TID 0000.0001) tempVertAdvScheme =   /* Temp. Vert. Advection scheme selector */
(PID.TID 0000.0001)                       2
(PID.TID 0000.0001)     ;
(PID.TID 0000.0001) tempMultiDimAdvec =   /* use Muti-Dim Advec method for Temp */
(PID.TID 0000.0001)                   F
(PID.TID 0000.0001)     ;
(PID.TID 0000.0001) tempSOM_Advection = /* use 2nd Order Moment Advection for Temp */
(PID.TID 0000.0001)                   F
(PID.TID 0000.0001)     ;
(PID.TID 0000.0001) AdamsBashforthGt = /* apply Adams-Bashforth extrapolation on Gt */
(PID.TID 0000.0001)                   F
(PID.TID 0000.0001)     ;
(PID.TID 0000.0001) AdamsBashforth_T = /* apply Adams-Bashforth extrapolation on Temp */
(PID.TID 0000.0001)                   F
(PID.TID 0000.0001)     ;
(PID.TID 0000.0001) saltAdvScheme =   /* Salt. Horiz.advection scheme selector */
(PID.TID 0000.0001)                       2
(PID.TID 0000.0001)     ;
(PID.TID 0000.0001) saltVertAdvScheme =   /* Salt. Vert. Advection scheme selector */
(PID.TID 0000.0001)                       2
(PID.TID 0000.0001)     ;
(PID.TID 0000.0001) saltMultiDimAdvec =   /* use Muti-Dim Advec method for Salt */
(PID.TID 0000.0001)                   F
(PID.TID 0000.0001)     ;
(PID.TID 0000.0001) saltSOM_Advection = /* use 2nd Order Moment Advection for Salt */
(PID.TID 0000.0001)                   F
(PID.TID 0000.0001)     ;
(PID.TID 0000.0001) AdamsBashforthGs = /* apply Adams-Bashforth extrapolation on Gs */
(PID.TID 0000.0001)                   F
(PID.TID 0000.0001)     ;
(PID.TID 0000.0001) AdamsBashforth_S = /* apply Adams-Bashforth extrapolation on Salt */
(PID.TID 0000.0001)                   F
(PID.TID 0000.0001)     ;
(PID.TID 0000.0001) // ===================================
(PID.TID 0000.0001) ------------------------------------------------------------
(PID.TID 0000.0001) DIAGNOSTICS_SET_LEVELS: done
(PID.TID 0000.0001)  Total Nb of available Diagnostics: ndiagt=   176
(PID.TID 0000.0001)  write list of available Diagnostics to file: available_diagnostics.log
(PID.TID 0000.0001) SETDIAG: Allocate  1 x  1 Levels for Diagnostic #    23 ETAN
(PID.TID 0000.0001) SETDIAG: Allocate  1 x  1 Levels for Diagnostic #    24 ETANSQ
(PID.TID 0000.0001) SETDIAG: Allocate  1 x  1 Levels for Diagnostic #    25 DETADT2
(PID.TID 0000.0001)   space allocated for all diagnostics:       3 levels
(PID.TID 0000.0001) DIAGNOSTICS_SET_POINTERS: Set levels for Outp.Stream: surfDiag
(PID.TID 0000.0001)  Levels:       1.
(PID.TID 0000.0001) DIAGNOSTICS_SET_POINTERS: done
(PID.TID 0000.0001) ------------------------------------------------------------
(PID.TID 0000.0001) DIAGSTATS_SET_REGIONS: define no region
(PID.TID 0000.0001) ------------------------------------------------------------
(PID.TID 0000.0001) SETDIAG: Allocate  1 Levels for Stats-Diag #    23 ETAN
(PID.TID 0000.0001) SETDIAG: Allocate  1 Levels for Stats-Diag #    24 ETANSQ
(PID.TID 0000.0001) SETDIAG: Allocate  1 Levels for Stats-Diag #    25 DETADT2
(PID.TID 0000.0001) SETDIAG: Allocate 50 Levels for Stats-Diag #    30 UVEL
(PID.TID 0000.0001) SETDIAG: Allocate 50 Levels for Stats-Diag #    32 WVEL
(PID.TID 0000.0001)   space allocated for all stats-diags:     103 levels
(PID.TID 0000.0001) DIAGSTATS_SET_POINTERS: done
(PID.TID 0000.0001) ------------------------------------------------------------
(PID.TID 0000.0001) DIAGSTATS_INI_IO: open file: dynStDiag.0000000000.txt , unit=     9
(PID.TID 0000.0001) %MON fCori_max                    =   0.0000000000000E+00
(PID.TID 0000.0001) %MON fCori_min                    =   0.0000000000000E+00
(PID.TID 0000.0001) %MON fCori_mean                   =   0.0000000000000E+00
(PID.TID 0000.0001) %MON fCori_sd                     =   0.0000000000000E+00
(PID.TID 0000.0001) %MON fCoriG_max                   =   0.0000000000000E+00
(PID.TID 0000.0001) %MON fCoriG_min                   =   0.0000000000000E+00
(PID.TID 0000.0001) %MON fCoriG_mean                  =   0.0000000000000E+00
(PID.TID 0000.0001) %MON fCoriG_sd                    =   0.0000000000000E+00
(PID.TID 0000.0001) %MON fCoriCos_max                 =   0.0000000000000E+00
(PID.TID 0000.0001) %MON fCoriCos_min                 =   0.0000000000000E+00
(PID.TID 0000.0001) %MON fCoriCos_mean                =   0.0000000000000E+00
(PID.TID 0000.0001) %MON fCoriCos_sd                  =   0.0000000000000E+00
(PID.TID 0000.0001) INI_CG2D: CG2D normalisation factor =  4.0000000000000008E-01
(PID.TID 0000.0001) 
(PID.TID 0000.0001) INI_CG3D: CG3D normalisation factor =  1.9999999999999996E+01
(PID.TID 0000.0001) 
(PID.TID 0000.0001) // =======================================================
(PID.TID 0000.0001) // Model configuration
(PID.TID 0000.0001) // =======================================================
(PID.TID 0000.0001) //
(PID.TID 0000.0001) // "Physical" paramters ( PARM01 in namelist )
(PID.TID 0000.0001) //
(PID.TID 0000.0001) buoyancyRelation = /* Type of relation to get Buoyancy */
(PID.TID 0000.0001)               'OCEANIC'
(PID.TID 0000.0001)     ;
(PID.TID 0000.0001) fluidIsAir  =  /* fluid major constituent is Air */
(PID.TID 0000.0001)                   F
(PID.TID 0000.0001)     ;
(PID.TID 0000.0001) fluidIsWater=  /* fluid major constituent is Water */
(PID.TID 0000.0001)                   T
(PID.TID 0000.0001)     ;
(PID.TID 0000.0001) usingPCoords =  /* use p (or p*) vertical coordinate */
(PID.TID 0000.0001)                   F
(PID.TID 0000.0001)     ;
(PID.TID 0000.0001) usingZCoords =  /* use z (or z*) vertical coordinate */
(PID.TID 0000.0001)                   T
(PID.TID 0000.0001)     ;
(PID.TID 0000.0001) tRef =   /* Reference temperature profile ( oC or K ) */
(PID.TID 0000.0001)    50 @  1.000000000000000E+01              /* K =  1: 50 */
(PID.TID 0000.0001)     ;
(PID.TID 0000.0001) sRef =   /* Reference salinity profile ( psu ) */
(PID.TID 0000.0001)    50 @  3.500000000000000E+01              /* K =  1: 50 */
(PID.TID 0000.0001)     ;
(PID.TID 0000.0001) viscAh =   /* Lateral eddy viscosity ( m^2/s ) */
(PID.TID 0000.0001)                 1.000000000000000E-06
(PID.TID 0000.0001)     ;
(PID.TID 0000.0001) viscAhMax =   /* Maximum lateral eddy viscosity ( m^2/s ) */
(PID.TID 0000.0001)                 1.000000000000000E+21
(PID.TID 0000.0001)     ;
(PID.TID 0000.0001) viscAhGrid =   /* Grid dependent lateral eddy viscosity ( non-dim. ) */
(PID.TID 0000.0001)                 0.000000000000000E+00
(PID.TID 0000.0001)     ;
(PID.TID 0000.0001) useFullLeith =   /* Use Full Form of Leith Viscosity on/off flag*/
(PID.TID 0000.0001)                   F
(PID.TID 0000.0001)     ;
(PID.TID 0000.0001) useStrainTensionVisc =   /* Use StrainTension Form of Viscous Operator on/off flag*/
(PID.TID 0000.0001)                   F
(PID.TID 0000.0001)     ;
(PID.TID 0000.0001) useAreaViscLength =   /* Use area for visc length instead of geom. mean*/
(PID.TID 0000.0001)                   F
(PID.TID 0000.0001)     ;
(PID.TID 0000.0001) viscC2leith = /* Leith harmonic visc. factor (on grad(vort),non-dim.) */
(PID.TID 0000.0001)                 0.000000000000000E+00
(PID.TID 0000.0001)     ;
(PID.TID 0000.0001) viscC2leithD = /* Leith harmonic viscosity factor (on grad(div),non-dim.) */
(PID.TID 0000.0001)                 0.000000000000000E+00
(PID.TID 0000.0001)     ;
(PID.TID 0000.0001) viscC2smag =   /* Smagorinsky harmonic viscosity factor (non-dim.) */
(PID.TID 0000.0001)                 0.000000000000000E+00
(PID.TID 0000.0001)     ;
(PID.TID 0000.0001) viscA4 =   /* Lateral biharmonic viscosity ( m^4/s ) */
(PID.TID 0000.0001)                 0.000000000000000E+00
(PID.TID 0000.0001)     ;
(PID.TID 0000.0001) viscA4Max =   /* Maximum biharmonic viscosity ( m^2/s ) */
(PID.TID 0000.0001)                 1.000000000000000E+21
(PID.TID 0000.0001)     ;
(PID.TID 0000.0001) viscA4Grid =   /* Grid dependent biharmonic viscosity ( non-dim. ) */
(PID.TID 0000.0001)                 0.000000000000000E+00
(PID.TID 0000.0001)     ;
(PID.TID 0000.0001) viscC4leith = /* Leith biharm viscosity factor (on grad(vort), non-dim.) */
(PID.TID 0000.0001)                 0.000000000000000E+00
(PID.TID 0000.0001)     ;
(PID.TID 0000.0001) viscC4leithD = /* Leith biharm viscosity factor (on grad(div), non-dim.) */
(PID.TID 0000.0001)                 0.000000000000000E+00
(PID.TID 0000.0001)     ;
(PID.TID 0000.0001) viscC4Smag = /* Smagorinsky biharm viscosity factor (non-dim) */
(PID.TID 0000.0001)                 0.000000000000000E+00
(PID.TID 0000.0001)     ;
(PID.TID 0000.0001) no_slip_sides =  /* Viscous BCs: No-slip sides */
(PID.TID 0000.0001)                   F
(PID.TID 0000.0001)     ;
(PID.TID 0000.0001) sideDragFactor = /* side-drag scaling factor (non-dim) */
(PID.TID 0000.0001)                 2.000000000000000E+00
(PID.TID 0000.0001)     ;
(PID.TID 0000.0001) viscArNr = /* vertical profile of vertical viscosity ( m^2/s )*/
(PID.TID 0000.0001)    50 @  1.000000000000000E-06              /* K =  1: 50 */
(PID.TID 0000.0001)     ;
(PID.TID 0000.0001) no_slip_bottom =  /* Viscous BCs: No-slip bottom */
(PID.TID 0000.0001)                   F
(PID.TID 0000.0001)     ;
(PID.TID 0000.0001) bottomDragLinear = /* linear bottom-drag coefficient ( m/s ) */
(PID.TID 0000.0001)                 0.000000000000000E+00
(PID.TID 0000.0001)     ;
(PID.TID 0000.0001) bottomDragQuadratic = /* quadratic bottom-drag coefficient (-) */
(PID.TID 0000.0001)                 0.000000000000000E+00
(PID.TID 0000.0001)     ;
(PID.TID 0000.0001) diffKhT =   /* Laplacian diffusion of heat laterally ( m^2/s ) */
(PID.TID 0000.0001)                 0.000000000000000E+00
(PID.TID 0000.0001)     ;
(PID.TID 0000.0001) diffK4T =   /* Biharmonic diffusion of heat laterally ( m^4/s ) */
(PID.TID 0000.0001)                 0.000000000000000E+00
(PID.TID 0000.0001)     ;
(PID.TID 0000.0001) diffKhS =   /* Laplacian diffusion of salt laterally ( m^2/s ) */
(PID.TID 0000.0001)                 0.000000000000000E+00
(PID.TID 0000.0001)     ;
(PID.TID 0000.0001) diffK4S =   /* Biharmonic diffusion of salt laterally ( m^4/s ) */
(PID.TID 0000.0001)                 0.000000000000000E+00
(PID.TID 0000.0001)     ;
(PID.TID 0000.0001) diffKrNrT = /* vertical profile of vertical diffusion of Temp ( m^2/s )*/
(PID.TID 0000.0001)    50 @  0.000000000000000E+00              /* K =  1: 50 */
(PID.TID 0000.0001)     ;
(PID.TID 0000.0001) diffKrNrS = /* vertical profile of vertical diffusion of Salt ( m^2/s )*/
(PID.TID 0000.0001)    50 @  0.000000000000000E+00              /* K =  1: 50 */
(PID.TID 0000.0001)     ;
(PID.TID 0000.0001) diffKrBL79surf = /* Surface diffusion for Bryan and Lewis 79 ( m^2/s ) */
(PID.TID 0000.0001)                 0.000000000000000E+00
(PID.TID 0000.0001)     ;
(PID.TID 0000.0001) diffKrBL79deep = /* Deep diffusion for Bryan and Lewis 1979 ( m^2/s ) */
(PID.TID 0000.0001)                 0.000000000000000E+00
(PID.TID 0000.0001)     ;
(PID.TID 0000.0001) diffKrBL79scl = /* Depth scale for Bryan and Lewis 1979 ( m ) */
(PID.TID 0000.0001)                 2.000000000000000E+02
(PID.TID 0000.0001)     ;
(PID.TID 0000.0001) diffKrBL79Ho = /* Turning depth for Bryan and Lewis 1979 ( m ) */
(PID.TID 0000.0001)                -2.000000000000000E+03
(PID.TID 0000.0001)     ;
(PID.TID 0000.0001) ivdc_kappa = /* Implicit Vertical Diffusivity for Convection ( m^2/s ) */
(PID.TID 0000.0001)                 0.000000000000000E+00
(PID.TID 0000.0001)     ;
(PID.TID 0000.0001) hMixCriteria=  /* Criteria for mixed-layer diagnostic */
(PID.TID 0000.0001)                -8.000000000000000E-01
(PID.TID 0000.0001)     ;
(PID.TID 0000.0001) dRhoSmall=  /* Parameter for mixed-layer diagnostic */
(PID.TID 0000.0001)                 1.000000000000000E-06
(PID.TID 0000.0001)     ;
(PID.TID 0000.0001) hMixSmooth=  /* Smoothing parameter for mixed-layer diagnostic */
(PID.TID 0000.0001)                 0.000000000000000E+00
(PID.TID 0000.0001)     ;
(PID.TID 0000.0001) eosType =  /* Type of Equation of State */
(PID.TID 0000.0001)               'LINEAR'
(PID.TID 0000.0001)     ;
(PID.TID 0000.0001) tAlpha =   /* Linear EOS thermal expansion coefficient ( 1/oC ) */
(PID.TID 0000.0001)                 0.000000000000000E+00
(PID.TID 0000.0001)     ;
(PID.TID 0000.0001) sBeta =   /* Linear EOS haline contraction coefficient ( 1/psu ) */
(PID.TID 0000.0001)                 0.000000000000000E+00
(PID.TID 0000.0001)     ;
(PID.TID 0000.0001) rhonil =   /* Reference density ( kg/m^3 ) */
(PID.TID 0000.0001)                 9.998000000000000E+02
(PID.TID 0000.0001)     ;
(PID.TID 0000.0001) rhoConst =   /* Reference density ( kg/m^3 ) */
(PID.TID 0000.0001)                 9.998000000000000E+02
(PID.TID 0000.0001)     ;
(PID.TID 0000.0001) rhoFacC = /* normalized Reference density @ cell-Center (-) */
(PID.TID 0000.0001)    50 @  1.000000000000000E+00              /* K =  1: 50 */
(PID.TID 0000.0001)     ;
(PID.TID 0000.0001) rhoFacF = /* normalized Reference density @ W-Interface (-) */
(PID.TID 0000.0001)    51 @  1.000000000000000E+00              /* K =  1: 51 */
(PID.TID 0000.0001)     ;
(PID.TID 0000.0001) rhoConstFresh =   /* Reference density ( kg/m^3 ) */
(PID.TID 0000.0001)                 9.998000000000000E+02
(PID.TID 0000.0001)     ;
(PID.TID 0000.0001) gravity =   /* Gravitational acceleration ( m/s^2 ) */
(PID.TID 0000.0001)                 1.000000000000000E+01
(PID.TID 0000.0001)     ;
(PID.TID 0000.0001) gBaro =   /* Barotropic gravity ( m/s^2 ) */
(PID.TID 0000.0001)                 1.000000000000000E+01
(PID.TID 0000.0001)     ;
(PID.TID 0000.0001) rotationPeriod =   /* Rotation Period ( s ) */
(PID.TID 0000.0001)                 8.616400000000000E+04
(PID.TID 0000.0001)     ;
(PID.TID 0000.0001) omega =   /* Angular velocity ( rad/s ) */
(PID.TID 0000.0001)                 7.292123516990375E-05
(PID.TID 0000.0001)     ;
(PID.TID 0000.0001) f0 =   /* Reference coriolis parameter ( 1/s ) */
(PID.TID 0000.0001)                 0.000000000000000E+00
(PID.TID 0000.0001)     ;
(PID.TID 0000.0001) beta =   /* Beta ( 1/(m.s) ) */
(PID.TID 0000.0001)                 0.000000000000000E+00
(PID.TID 0000.0001)     ;
(PID.TID 0000.0001) freeSurfFac =   /* Implicit free surface factor */
(PID.TID 0000.0001)                 1.000000000000000E+00
(PID.TID 0000.0001)     ;
(PID.TID 0000.0001) implicitFreeSurface =   /* Implicit free surface on/off flag */
(PID.TID 0000.0001)                   T
(PID.TID 0000.0001)     ;
(PID.TID 0000.0001) rigidLid =   /* Rigid lid on/off flag */
(PID.TID 0000.0001)                   F
(PID.TID 0000.0001)     ;
(PID.TID 0000.0001) implicSurfPress =   /* Surface Pressure implicit factor (0-1)*/
(PID.TID 0000.0001)                 5.000000000000000E-01
(PID.TID 0000.0001)     ;
(PID.TID 0000.0001) implicDiv2Dflow =   /* Barot. Flow Div. implicit factor (0-1)*/
(PID.TID 0000.0001)                 5.000000000000000E-01
(PID.TID 0000.0001)     ;
(PID.TID 0000.0001) exactConserv =   /* Exact Volume Conservation on/off flag*/
(PID.TID 0000.0001)                   T
(PID.TID 0000.0001)     ;
(PID.TID 0000.0001) linFSConserveTr =   /* Tracer correction for Lin Free Surface on/off flag*/
(PID.TID 0000.0001)                   F
(PID.TID 0000.0001)     ;
(PID.TID 0000.0001) uniformLin_PhiSurf =   /* use uniform Bo_surf on/off flag*/
(PID.TID 0000.0001)                   T
(PID.TID 0000.0001)     ;
(PID.TID 0000.0001) nonlinFreeSurf =   /* Non-linear Free Surf. options (-1,0,1,2,3)*/
(PID.TID 0000.0001)                       0
(PID.TID 0000.0001)     ;
(PID.TID 0000.0001)      -1,0= Off ; 1,2,3= On, 2=+rescale gU,gV, 3=+update cg2d solv.
(PID.TID 0000.0001) hFacInf =   /* lower threshold for hFac (nonlinFreeSurf only)*/
(PID.TID 0000.0001)                 2.000000000000000E-01
(PID.TID 0000.0001)     ;
(PID.TID 0000.0001) hFacSup =   /* upper threshold for hFac (nonlinFreeSurf only)*/
(PID.TID 0000.0001)                 2.000000000000000E+00
(PID.TID 0000.0001)     ;
(PID.TID 0000.0001) select_rStar = /* r* Vertical coord. options (=0 r coord.; > 0 uses r*) */
(PID.TID 0000.0001)                       0
(PID.TID 0000.0001)     ;
(PID.TID 0000.0001) selectAddFluid = /* option for mass source/sink of fluid (=0: off) */
(PID.TID 0000.0001)                       0
(PID.TID 0000.0001)     ;
(PID.TID 0000.0001) useRealFreshWaterFlux = /* Real Fresh Water Flux on/off flag*/
(PID.TID 0000.0001)                   F
(PID.TID 0000.0001)     ;
(PID.TID 0000.0001) temp_EvPrRn = /* Temp. of Evap/Prec/R (UNSET=use local T)(oC)*/
(PID.TID 0000.0001)                 1.234567000000000E+05
(PID.TID 0000.0001)     ;
(PID.TID 0000.0001) salt_EvPrRn = /* Salin. of Evap/Prec/R (UNSET=use local S)(ppt)*/
(PID.TID 0000.0001)                 0.000000000000000E+00
(PID.TID 0000.0001)     ;
(PID.TID 0000.0001) convertFW2Salt = /* convert F.W. Flux to Salt Flux (-1=use local S)(ppt)*/
(PID.TID 0000.0001)                 3.500000000000000E+01
(PID.TID 0000.0001)     ;
(PID.TID 0000.0001) use3Dsolver = /* use 3-D pressure solver on/off flag */
(PID.TID 0000.0001)                   T
(PID.TID 0000.0001)     ;
(PID.TID 0000.0001) nonHydrostatic =  /* Non-Hydrostatic on/off flag */
(PID.TID 0000.0001)                   T
(PID.TID 0000.0001)     ;
(PID.TID 0000.0001) nh_Am2 = /* Non-Hydrostatic terms scaling factor */
(PID.TID 0000.0001)                 1.000000000000000E+00
(PID.TID 0000.0001)     ;
(PID.TID 0000.0001) implicitNHPress = /* Non-Hyd Pressure implicit factor (0-1)*/
(PID.TID 0000.0001)                 5.000000000000000E-01
(PID.TID 0000.0001)     ;
(PID.TID 0000.0001) selectNHfreeSurf = /* Non-Hyd (free-)Surface option */
(PID.TID 0000.0001)                       1
(PID.TID 0000.0001)     ;
(PID.TID 0000.0001) quasiHydrostatic = /* Quasi-Hydrostatic on/off flag */
(PID.TID 0000.0001)                   F
(PID.TID 0000.0001)     ;
(PID.TID 0000.0001) momStepping =  /* Momentum equation on/off flag */
(PID.TID 0000.0001)                   T
(PID.TID 0000.0001)     ;
(PID.TID 0000.0001) vectorInvariantMomentum= /* Vector-Invariant Momentum on/off */
(PID.TID 0000.0001)                   F
(PID.TID 0000.0001)     ;
(PID.TID 0000.0001) momAdvection =  /* Momentum advection on/off flag */
(PID.TID 0000.0001)                   T
(PID.TID 0000.0001)     ;
(PID.TID 0000.0001) momViscosity =  /* Momentum viscosity on/off flag */
(PID.TID 0000.0001)                   T
(PID.TID 0000.0001)     ;
(PID.TID 0000.0001) momImplVertAdv =/* Momentum implicit vert. advection on/off*/
(PID.TID 0000.0001)                   F
(PID.TID 0000.0001)     ;
(PID.TID 0000.0001) implicitViscosity = /* Implicit viscosity on/off flag */
(PID.TID 0000.0001)                   F
(PID.TID 0000.0001)     ;
(PID.TID 0000.0001) metricTerms =  /* metric-Terms on/off flag */
(PID.TID 0000.0001)                   F
(PID.TID 0000.0001)     ;
(PID.TID 0000.0001) useNHMTerms = /* Non-Hydrostatic Metric-Terms on/off */
(PID.TID 0000.0001)                   F
(PID.TID 0000.0001)     ;
(PID.TID 0000.0001) useConstantF =  /* use Constant f0 Coriolis flag */
(PID.TID 0000.0001)                   F
(PID.TID 0000.0001)     ;
(PID.TID 0000.0001) useBetaPlaneF = /* use Beta-Plane Coriolis flag */
(PID.TID 0000.0001)                   T
(PID.TID 0000.0001)     ;
(PID.TID 0000.0001) useSphereF  =   /* use Spherical Coriolis flag */
(PID.TID 0000.0001)                   F
(PID.TID 0000.0001)     ;
(PID.TID 0000.0001) use3dCoriolis = /* 3-D Coriolis on/off flag */
(PID.TID 0000.0001)                   F
(PID.TID 0000.0001)     ;
(PID.TID 0000.0001) useCoriolis =  /* Coriolis on/off flag */
(PID.TID 0000.0001)                   T
(PID.TID 0000.0001)     ;
(PID.TID 0000.0001) useCDscheme =  /* CD scheme on/off flag */
(PID.TID 0000.0001)                   F
(PID.TID 0000.0001)     ;
(PID.TID 0000.0001) useJamartWetPoints= /* Coriolis WetPoints method flag */
(PID.TID 0000.0001)                   F
(PID.TID 0000.0001)     ;
(PID.TID 0000.0001) useJamartMomAdv= /* V.I. Non-linear terms Jamart flag */
(PID.TID 0000.0001)                   F
(PID.TID 0000.0001)     ;
(PID.TID 0000.0001) useAbsVorticity= /* Work with f+zeta in Coriolis */
(PID.TID 0000.0001)                   F
(PID.TID 0000.0001)     ;
(PID.TID 0000.0001) selectVortScheme= /* Scheme selector for Vorticity-Term */
(PID.TID 0000.0001)               123456789
(PID.TID 0000.0001)    = 0 : enstrophy (Shallow-Water Eq.) conserving scheme by Sadourny, JAS 75
(PID.TID 0000.0001)    = 1 : same as 0 with modified hFac
(PID.TID 0000.0001)    = 2 : energy conserving scheme (used by Sadourny in JAS 75 paper)
(PID.TID 0000.0001)    = 3 : energy (general) and enstrophy (2D, nonDiv.) conserving scheme
(PID.TID 0000.0001)          from Sadourny (Burridge & Haseler, ECMWF Rep.4, 1977)
(PID.TID 0000.0001)     ;
(PID.TID 0000.0001) upwindVorticity= /* Upwind bias vorticity flag */
(PID.TID 0000.0001)                   F
(PID.TID 0000.0001)     ;
(PID.TID 0000.0001) highOrderVorticity= /* High order interp. of vort. flag */
(PID.TID 0000.0001)                   F
(PID.TID 0000.0001)     ;
(PID.TID 0000.0001) upwindShear= /* Upwind vertical Shear advection flag */
(PID.TID 0000.0001)                   F
(PID.TID 0000.0001)     ;
(PID.TID 0000.0001) selectKEscheme= /* Kinetic Energy scheme selector */
(PID.TID 0000.0001)                       0
(PID.TID 0000.0001)     ;
(PID.TID 0000.0001) momForcing =  /* Momentum forcing on/off flag */
(PID.TID 0000.0001)                   T
(PID.TID 0000.0001)     ;
(PID.TID 0000.0001) momPressureForcing =  /* Momentum pressure term on/off flag */
(PID.TID 0000.0001)                   T
(PID.TID 0000.0001)     ;
(PID.TID 0000.0001) implicitIntGravWave= /* Implicit Internal Gravity Wave flag */
(PID.TID 0000.0001)                   F
(PID.TID 0000.0001)     ;
(PID.TID 0000.0001) staggerTimeStep =   /* Stagger time stepping on/off flag */
(PID.TID 0000.0001)                   F
(PID.TID 0000.0001)     ;
(PID.TID 0000.0001) multiDimAdvection =   /* enable/disable Multi-Dim Advection */
(PID.TID 0000.0001)                   T
(PID.TID 0000.0001)     ;
(PID.TID 0000.0001) useMultiDimAdvec =   /* Multi-Dim Advection is/is-not used */
(PID.TID 0000.0001)                   F
(PID.TID 0000.0001)     ;
(PID.TID 0000.0001) implicitDiffusion =/* Implicit Diffusion on/off flag */
(PID.TID 0000.0001)                   F
(PID.TID 0000.0001)     ;
(PID.TID 0000.0001) tempStepping =  /* Temperature equation on/off flag */
(PID.TID 0000.0001)                   F
(PID.TID 0000.0001)     ;
(PID.TID 0000.0001) tempAdvection=  /* Temperature advection on/off flag */
(PID.TID 0000.0001)                   F
(PID.TID 0000.0001)     ;
(PID.TID 0000.0001) tempImplVertAdv =/* Temp. implicit vert. advection on/off */
(PID.TID 0000.0001)                   F
(PID.TID 0000.0001)     ;
(PID.TID 0000.0001) tempForcing  =  /* Temperature forcing on/off flag */
(PID.TID 0000.0001)                   F
(PID.TID 0000.0001)     ;
(PID.TID 0000.0001) tempIsActiveTr = /* Temp. is a dynamically Active Tracer */
(PID.TID 0000.0001)                   F
(PID.TID 0000.0001)     ;
(PID.TID 0000.0001) saltStepping =  /* Salinity equation on/off flag */
(PID.TID 0000.0001)                   F
(PID.TID 0000.0001)     ;
(PID.TID 0000.0001) saltAdvection=  /* Salinity advection on/off flag */
(PID.TID 0000.0001)                   F
(PID.TID 0000.0001)     ;
(PID.TID 0000.0001) saltImplVertAdv =/* Sali. implicit vert. advection on/off */
(PID.TID 0000.0001)                   F
(PID.TID 0000.0001)     ;
(PID.TID 0000.0001) saltForcing  =  /* Salinity forcing on/off flag */
(PID.TID 0000.0001)                   F
(PID.TID 0000.0001)     ;
(PID.TID 0000.0001) saltIsActiveTr = /* Salt  is a dynamically Active Tracer */
(PID.TID 0000.0001)                   F
(PID.TID 0000.0001)     ;
(PID.TID 0000.0001)  readBinaryPrec = /* Precision used for reading binary files */
(PID.TID 0000.0001)                      64
(PID.TID 0000.0001)     ;
(PID.TID 0000.0001) writeBinaryPrec = /* Precision used for writing binary files */
(PID.TID 0000.0001)                      64
(PID.TID 0000.0001)     ;
(PID.TID 0000.0001)  globalFiles = /* write "global" (=not per tile) files */
(PID.TID 0000.0001)                   F
(PID.TID 0000.0001)     ;
(PID.TID 0000.0001)  useSingleCpuIO = /* only master MPI process does I/O */
(PID.TID 0000.0001)                   F
(PID.TID 0000.0001)     ;
(PID.TID 0000.0001)  debugMode  =  /* Debug Mode on/off flag */
(PID.TID 0000.0001)                   F
(PID.TID 0000.0001)     ;
(PID.TID 0000.0001)    debLevA  =  /* 1rst level of debugging */
(PID.TID 0000.0001)                       1
(PID.TID 0000.0001)     ;
(PID.TID 0000.0001)    debLevB  =  /* 2nd  level of debugging */
(PID.TID 0000.0001)                       2
(PID.TID 0000.0001)     ;
(PID.TID 0000.0001)  debugLevel =  /* select debugging level */
(PID.TID 0000.0001)                       1
(PID.TID 0000.0001)     ;
(PID.TID 0000.0001) //
(PID.TID 0000.0001) // Elliptic solver(s) paramters ( PARM02 in namelist )
(PID.TID 0000.0001) //
(PID.TID 0000.0001) cg2dMaxIters =   /* Upper limit on 2d con. grad iterations  */
(PID.TID 0000.0001)                     100
(PID.TID 0000.0001)     ;
(PID.TID 0000.0001) cg2dChkResFreq =   /* 2d con. grad convergence test frequency */
(PID.TID 0000.0001)                       1
(PID.TID 0000.0001)     ;
(PID.TID 0000.0001) cg2dTargetResidual =   /* 2d con. grad target residual  */
(PID.TID 0000.0001)                 1.000000000000000E-13
(PID.TID 0000.0001)     ;
(PID.TID 0000.0001) cg2dTargetResWunit =   /* CG2d target residual [W units] */
(PID.TID 0000.0001)                -1.000000000000000E+00
(PID.TID 0000.0001)     ;
(PID.TID 0000.0001) cg2dPreCondFreq =   /* Freq. for updating cg2d preconditioner */
(PID.TID 0000.0001)                       1
(PID.TID 0000.0001)     ;
(PID.TID 0000.0001) useSRCGSolver =  /* use single reduction CG solver(s) */
(PID.TID 0000.0001)                   F
(PID.TID 0000.0001)     ;
(PID.TID 0000.0001) //
(PID.TID 0000.0001) // Time stepping paramters ( PARM03 in namelist )
(PID.TID 0000.0001) //
(PID.TID 0000.0001) deltaTmom =   /* Momentum equation timestep ( s ) */
(PID.TID 0000.0001)                 5.000000000000000E-03
(PID.TID 0000.0001)     ;
(PID.TID 0000.0001) deltaTfreesurf = /* FreeSurface equation timestep ( s ) */
(PID.TID 0000.0001)                 5.000000000000000E-03
(PID.TID 0000.0001)     ;
(PID.TID 0000.0001) dTtracerLev =  /* Tracer equation timestep ( s ) */
(PID.TID 0000.0001)    50 @  5.000000000000000E-03              /* K =  1: 50 */
(PID.TID 0000.0001)     ;
(PID.TID 0000.0001) deltaTClock  =   /* Model clock timestep ( s ) */
(PID.TID 0000.0001)                 5.000000000000000E-03
(PID.TID 0000.0001)     ;
(PID.TID 0000.0001) cAdjFreq =   /* Convective adjustment interval ( s ) */
(PID.TID 0000.0001)                 0.000000000000000E+00
(PID.TID 0000.0001)     ;
(PID.TID 0000.0001) momForcingOutAB = /* =1: take Momentum Forcing out of Adams-Bash. stepping */
(PID.TID 0000.0001)                       0
(PID.TID 0000.0001)     ;
(PID.TID 0000.0001) tracForcingOutAB = /* =1: take T,S,pTr Forcing out of Adams-Bash. stepping */
(PID.TID 0000.0001)                       0
(PID.TID 0000.0001)     ;
(PID.TID 0000.0001) momDissip_In_AB = /* put Dissipation Tendency in Adams-Bash. stepping */
(PID.TID 0000.0001)                   F
(PID.TID 0000.0001)     ;
(PID.TID 0000.0001) doAB_onGtGs = /* apply AB on Tendencies (rather than on T,S)*/
(PID.TID 0000.0001)                   T
(PID.TID 0000.0001)     ;
(PID.TID 0000.0001) abEps =   /* Adams-Bashforth-2 stabilizing weight */
(PID.TID 0000.0001)                 1.000000000000000E-02
(PID.TID 0000.0001)     ;
(PID.TID 0000.0001) alph_AB =   /* Adams-Bashforth-3 primary factor */
(PID.TID 0000.0001)                 5.000000000000000E-01
(PID.TID 0000.0001)     ;
(PID.TID 0000.0001) beta_AB =   /* Adams-Bashforth-3 secondary factor */
(PID.TID 0000.0001)                 2.811050000000000E-01
(PID.TID 0000.0001)     ;
(PID.TID 0000.0001) startFromPickupAB2= /* start from AB-2 pickup */
(PID.TID 0000.0001)                   F
(PID.TID 0000.0001)     ;
(PID.TID 0000.0001) pickupStrictlyMatch= /* stop if pickup do not strictly match */
(PID.TID 0000.0001)                   T
(PID.TID 0000.0001)     ;
(PID.TID 0000.0001) nIter0 =   /* Run starting timestep number  */
(PID.TID 0000.0001)                       0
(PID.TID 0000.0001)     ;
(PID.TID 0000.0001) nTimeSteps =   /* Number of timesteps */
(PID.TID 0000.0001)                      12
(PID.TID 0000.0001)     ;
(PID.TID 0000.0001) baseTime =   /* Model base time ( s ). */
(PID.TID 0000.0001)                 0.000000000000000E+00
(PID.TID 0000.0001)     ;
(PID.TID 0000.0001) startTime =   /* Run start time ( s ). */
(PID.TID 0000.0001)                 0.000000000000000E+00
(PID.TID 0000.0001)     ;
(PID.TID 0000.0001) endTime =   /* Integration ending time ( s ). */
(PID.TID 0000.0001)                 6.000000000000000E-02
(PID.TID 0000.0001)     ;
(PID.TID 0000.0001) pChkPtFreq =   /* Permanent restart/checkpoint file interval ( s ). */
(PID.TID 0000.0001)                 0.000000000000000E+00
(PID.TID 0000.0001)     ;
(PID.TID 0000.0001) chkPtFreq =   /* Rolling restart/checkpoint file interval ( s ). */
(PID.TID 0000.0001)                 0.000000000000000E+00
(PID.TID 0000.0001)     ;
(PID.TID 0000.0001) pickup_write_mdsio =   /* Model IO flag. */
(PID.TID 0000.0001)                   T
(PID.TID 0000.0001)     ;
(PID.TID 0000.0001) pickup_read_mdsio =   /* Model IO flag. */
(PID.TID 0000.0001)                   T
(PID.TID 0000.0001)     ;
(PID.TID 0000.0001) pickup_write_immed =   /* Model IO flag. */
(PID.TID 0000.0001)                   F
(PID.TID 0000.0001)     ;
(PID.TID 0000.0001) writePickupAtEnd =   /* Model IO flag. */
(PID.TID 0000.0001)                   T
(PID.TID 0000.0001)     ;
(PID.TID 0000.0001) dumpFreq =   /* Model state write out interval ( s ). */
(PID.TID 0000.0001)                 5.000000000000000E+00
(PID.TID 0000.0001)     ;
(PID.TID 0000.0001) dumpInitAndLast= /* write out Initial & Last iter. model state */
(PID.TID 0000.0001)                   T
(PID.TID 0000.0001)     ;
(PID.TID 0000.0001) snapshot_mdsio =   /* Model IO flag. */
(PID.TID 0000.0001)                   T
(PID.TID 0000.0001)     ;
(PID.TID 0000.0001) monitorFreq =   /* Monitor output interval ( s ). */
(PID.TID 0000.0001)                 5.000000000000000E-03
(PID.TID 0000.0001)     ;
(PID.TID 0000.0001) monitorSelect = /* select group of variables to monitor */
(PID.TID 0000.0001)                       1
(PID.TID 0000.0001)     ;
(PID.TID 0000.0001) monitor_stdio =   /* Model IO flag. */
(PID.TID 0000.0001)                   T
(PID.TID 0000.0001)     ;
(PID.TID 0000.0001) externForcingPeriod =   /* forcing period (s) */
(PID.TID 0000.0001)                 0.000000000000000E+00
(PID.TID 0000.0001)     ;
(PID.TID 0000.0001) externForcingCycle =   /* period of the cyle (s). */
(PID.TID 0000.0001)                 0.000000000000000E+00
(PID.TID 0000.0001)     ;
(PID.TID 0000.0001) tauThetaClimRelax =   /* relaxation time scale (s) */
(PID.TID 0000.0001)                 0.000000000000000E+00
(PID.TID 0000.0001)     ;
(PID.TID 0000.0001) tauSaltClimRelax =   /* relaxation time scale (s) */
(PID.TID 0000.0001)                 0.000000000000000E+00
(PID.TID 0000.0001)     ;
(PID.TID 0000.0001) latBandClimRelax =   /* max. Lat. where relaxation */
(PID.TID 0000.0001)                 6.000000000000001E-01
(PID.TID 0000.0001)     ;
(PID.TID 0000.0001) //
(PID.TID 0000.0001) // Gridding paramters ( PARM04 in namelist )
(PID.TID 0000.0001) //
(PID.TID 0000.0001) usingCartesianGrid = /* Cartesian coordinates flag ( True/False ) */
(PID.TID 0000.0001)                   T
(PID.TID 0000.0001)     ;
(PID.TID 0000.0001) usingCylindricalGrid = /* Cylindrical coordinates flag ( True/False ) */
(PID.TID 0000.0001)                   F
(PID.TID 0000.0001)     ;
(PID.TID 0000.0001) usingSphericalPolarGrid = /* Spherical coordinates flag ( True/False ) */
(PID.TID 0000.0001)                   F
(PID.TID 0000.0001)     ;
(PID.TID 0000.0001) usingCurvilinearGrid = /* Curvilinear coordinates flag ( True/False ) */
(PID.TID 0000.0001)                   F
(PID.TID 0000.0001)     ;
(PID.TID 0000.0001) Ro_SeaLevel = /* r(1) ( units of r ==  m ) */
(PID.TID 0000.0001)                 0.000000000000000E+00
(PID.TID 0000.0001)     ;
(PID.TID 0000.0001) rkSign =   /* index orientation relative to vertical coordinate */
(PID.TID 0000.0001)                -1.000000000000000E+00
(PID.TID 0000.0001)     ;
(PID.TID 0000.0001) gravitySign = /* gravity orientation relative to vertical coordinate */
(PID.TID 0000.0001)                -1.000000000000000E+00
(PID.TID 0000.0001)     ;
(PID.TID 0000.0001) mass2rUnit = /* convert mass per unit area [kg/m2] to r-units [m] */
(PID.TID 0000.0001)                 1.000200040008002E-03
(PID.TID 0000.0001)     ;
(PID.TID 0000.0001) rUnit2mass = /* convert r-units [m] to mass per unit area [kg/m2] */
(PID.TID 0000.0001)                 9.998000000000000E+02
(PID.TID 0000.0001)     ;
(PID.TID 0000.0001) drC =   /* C spacing ( units of r ) */
(PID.TID 0000.0001)                 1.000000000000000E-01,      /* K =  1 */
(PID.TID 0000.0001)    49 @  2.000000000000000E-01              /* K =  2: 50 */
(PID.TID 0000.0001)     ;
(PID.TID 0000.0001) drF =   /* W spacing ( units of r ) */
(PID.TID 0000.0001)    50 @  2.000000000000000E-01              /* K =  1: 50 */
(PID.TID 0000.0001)     ;
(PID.TID 0000.0001) delX = /* U spacing ( m - cartesian, degrees - spherical ) */
(PID.TID 0000.0001)    52 @  2.000000000000000E-01              /* I =  1: 52 */
(PID.TID 0000.0001)     ;
(PID.TID 0000.0001) delY = /* V spacing ( m - cartesian, degrees - spherical ) */
(PID.TID 0000.0001)                 2.000000000000000E-01       /* J =  1 */
(PID.TID 0000.0001)     ;
(PID.TID 0000.0001) xgOrigin = /* X-axis origin of West  edge (cartesian: m, lat-lon: deg.) */
(PID.TID 0000.0001)                 0.000000000000000E+00
(PID.TID 0000.0001)     ;
(PID.TID 0000.0001) ygOrigin = /* Y-axis origin of South edge (cartesian: m, lat-lon: deg.) */
(PID.TID 0000.0001)                 0.000000000000000E+00
(PID.TID 0000.0001)     ;
(PID.TID 0000.0001) rSphere =  /* Radius ( ignored - cartesian, m - spherical ) */
(PID.TID 0000.0001)                 6.370000000000000E+06
(PID.TID 0000.0001)     ;
(PID.TID 0000.0001) deepAtmosphere = /* Deep/Shallow Atmosphere flag (True/False) */
(PID.TID 0000.0001)                   F
(PID.TID 0000.0001)     ;
(PID.TID 0000.0001) xC =  /* xC(:,1,:,1) : P-point X coord ( deg. or m if cartesian) */
(PID.TID 0000.0001)                 1.000000000000000E-01,      /* I =  1 */
(PID.TID 0000.0001)                 3.000000000000000E-01,      /* I =  2 */
(PID.TID 0000.0001)                 5.000000000000000E-01,      /* I =  3 */
(PID.TID 0000.0001)                 7.000000000000000E-01,      /* I =  4 */
(PID.TID 0000.0001)                 9.000000000000000E-01,      /* I =  5 */
(PID.TID 0000.0001)                 1.100000000000000E+00,      /* I =  6 */
(PID.TID 0000.0001)                 1.300000000000000E+00,      /* I =  7 */
(PID.TID 0000.0001)                 1.500000000000000E+00,      /* I =  8 */
(PID.TID 0000.0001)                 1.700000000000000E+00,      /* I =  9 */
(PID.TID 0000.0001)                 1.900000000000000E+00,      /* I = 10 */
(PID.TID 0000.0001)                 2.100000000000000E+00,      /* I = 11 */
(PID.TID 0000.0001)                 2.300000000000000E+00,      /* I = 12 */
(PID.TID 0000.0001)                 2.500000000000000E+00,      /* I = 13 */
(PID.TID 0000.0001)                 2.700000000000000E+00,      /* I = 14 */
(PID.TID 0000.0001)                 2.900000000000000E+00,      /* I = 15 */
(PID.TID 0000.0001)                 3.100000000000001E+00,      /* I = 16 */
(PID.TID 0000.0001)                 3.300000000000001E+00,      /* I = 17 */
(PID.TID 0000.0001)                 3.500000000000001E+00,      /* I = 18 */
(PID.TID 0000.0001)                 3.700000000000001E+00,      /* I = 19 */
(PID.TID 0000.0001)                 3.900000000000001E+00,      /* I = 20 */
(PID.TID 0000.0001)                 4.100000000000001E+00,      /* I = 21 */
(PID.TID 0000.0001)                 4.300000000000001E+00,      /* I = 22 */
(PID.TID 0000.0001)                 4.500000000000002E+00,      /* I = 23 */
(PID.TID 0000.0001)                 4.700000000000001E+00,      /* I = 24 */
(PID.TID 0000.0001)                 4.900000000000002E+00,      /* I = 25 */
(PID.TID 0000.0001)                 5.100000000000001E+00,      /* I = 26 */
(PID.TID 0000.0001)                 5.300000000000002E+00,      /* I = 27 */
(PID.TID 0000.0001)                 5.500000000000002E+00,      /* I = 28 */
(PID.TID 0000.0001)                 5.700000000000003E+00,      /* I = 29 */
(PID.TID 0000.0001)                 5.900000000000003E+00,      /* I = 30 */
(PID.TID 0000.0001)                 6.100000000000003E+00,      /* I = 31 */
(PID.TID 0000.0001)                 6.300000000000002E+00,      /* I = 32 */
(PID.TID 0000.0001)                 6.500000000000004E+00,      /* I = 33 */
(PID.TID 0000.0001)                 6.700000000000003E+00,      /* I = 34 */
(PID.TID 0000.0001)                 6.900000000000004E+00,      /* I = 35 */
(PID.TID 0000.0001)                 7.100000000000003E+00,      /* I = 36 */
(PID.TID 0000.0001)                 7.300000000000004E+00,      /* I = 37 */
(PID.TID 0000.0001)                 7.500000000000004E+00,      /* I = 38 */
(PID.TID 0000.0001)                 7.700000000000005E+00,      /* I = 39 */
(PID.TID 0000.0001)                 7.900000000000004E+00,      /* I = 40 */
(PID.TID 0000.0001)                 8.100000000000003E+00,      /* I = 41 */
(PID.TID 0000.0001)                 8.300000000000002E+00,      /* I = 42 */
(PID.TID 0000.0001)                 8.500000000000002E+00,      /* I = 43 */
(PID.TID 0000.0001)                 8.700000000000001E+00,      /* I = 44 */
(PID.TID 0000.0001)                 8.900000000000000E+00,      /* I = 45 */
(PID.TID 0000.0001)                 9.100000000000000E+00,      /* I = 46 */
(PID.TID 0000.0001)                 9.299999999999999E+00,      /* I = 47 */
(PID.TID 0000.0001)                 9.499999999999998E+00,      /* I = 48 */
(PID.TID 0000.0001)                 9.699999999999998E+00,      /* I = 49 */
(PID.TID 0000.0001)                 9.899999999999997E+00,      /* I = 50 */
(PID.TID 0000.0001)                 1.010000000000000E+01,      /* I = 51 */
(PID.TID 0000.0001)                 1.030000000000000E+01       /* I = 52 */
(PID.TID 0000.0001)     ;
(PID.TID 0000.0001) yC =  /* yC(1,:,1,:) : P-point Y coord ( deg. or m if cartesian) */
(PID.TID 0000.0001)                 1.000000000000000E-01       /* J =  1 */
(PID.TID 0000.0001)     ;
(PID.TID 0000.0001) rcoord = /* P-point R coordinate (  units of r ) */
(PID.TID 0000.0001)                -1.000000000000000E-01,      /* K =  1 */
(PID.TID 0000.0001)                -3.000000000000000E-01,      /* K =  2 */
(PID.TID 0000.0001)                -5.000000000000000E-01,      /* K =  3 */
(PID.TID 0000.0001)                -7.000000000000000E-01,      /* K =  4 */
(PID.TID 0000.0001)                -8.999999999999999E-01,      /* K =  5 */
(PID.TID 0000.0001)                -1.100000000000000E+00,      /* K =  6 */
(PID.TID 0000.0001)                -1.300000000000000E+00,      /* K =  7 */
(PID.TID 0000.0001)                -1.500000000000000E+00,      /* K =  8 */
(PID.TID 0000.0001)                -1.700000000000000E+00,      /* K =  9 */
(PID.TID 0000.0001)                -1.900000000000000E+00,      /* K = 10 */
(PID.TID 0000.0001)                -2.100000000000000E+00,      /* K = 11 */
(PID.TID 0000.0001)                -2.300000000000000E+00,      /* K = 12 */
(PID.TID 0000.0001)                -2.500000000000000E+00,      /* K = 13 */
(PID.TID 0000.0001)                -2.700000000000000E+00,      /* K = 14 */
(PID.TID 0000.0001)                -2.900000000000000E+00,      /* K = 15 */
(PID.TID 0000.0001)                -3.100000000000001E+00,      /* K = 16 */
(PID.TID 0000.0001)                -3.300000000000001E+00,      /* K = 17 */
(PID.TID 0000.0001)                -3.500000000000001E+00,      /* K = 18 */
(PID.TID 0000.0001)                -3.700000000000001E+00,      /* K = 19 */
(PID.TID 0000.0001)                -3.900000000000001E+00,      /* K = 20 */
(PID.TID 0000.0001)                -4.100000000000001E+00,      /* K = 21 */
(PID.TID 0000.0001)                -4.300000000000002E+00,      /* K = 22 */
(PID.TID 0000.0001)                -4.500000000000002E+00,      /* K = 23 */
(PID.TID 0000.0001)                -4.700000000000002E+00,      /* K = 24 */
(PID.TID 0000.0001)                -4.900000000000002E+00,      /* K = 25 */
(PID.TID 0000.0001)                -5.100000000000002E+00,      /* K = 26 */
(PID.TID 0000.0001)                -5.300000000000002E+00,      /* K = 27 */
(PID.TID 0000.0001)                -5.500000000000003E+00,      /* K = 28 */
(PID.TID 0000.0001)                -5.700000000000003E+00,      /* K = 29 */
(PID.TID 0000.0001)                -5.900000000000003E+00,      /* K = 30 */
(PID.TID 0000.0001)                -6.100000000000003E+00,      /* K = 31 */
(PID.TID 0000.0001)                -6.300000000000003E+00,      /* K = 32 */
(PID.TID 0000.0001)                -6.500000000000004E+00,      /* K = 33 */
(PID.TID 0000.0001)                -6.700000000000004E+00,      /* K = 34 */
(PID.TID 0000.0001)                -6.900000000000004E+00,      /* K = 35 */
(PID.TID 0000.0001)                -7.100000000000004E+00,      /* K = 36 */
(PID.TID 0000.0001)                -7.300000000000004E+00,      /* K = 37 */
(PID.TID 0000.0001)                -7.500000000000004E+00,      /* K = 38 */
(PID.TID 0000.0001)                -7.700000000000005E+00,      /* K = 39 */
(PID.TID 0000.0001)                -7.900000000000005E+00,      /* K = 40 */
(PID.TID 0000.0001)                -8.100000000000005E+00,      /* K = 41 */
(PID.TID 0000.0001)                -8.300000000000004E+00,      /* K = 42 */
(PID.TID 0000.0001)                -8.500000000000004E+00,      /* K = 43 */
(PID.TID 0000.0001)                -8.700000000000003E+00,      /* K = 44 */
(PID.TID 0000.0001)                -8.900000000000002E+00,      /* K = 45 */
(PID.TID 0000.0001)                -9.100000000000001E+00,      /* K = 46 */
(PID.TID 0000.0001)                -9.300000000000001E+00,      /* K = 47 */
(PID.TID 0000.0001)                -9.500000000000000E+00,      /* K = 48 */
(PID.TID 0000.0001)                -9.699999999999999E+00,      /* K = 49 */
(PID.TID 0000.0001)                -9.899999999999999E+00       /* K = 50 */
(PID.TID 0000.0001)     ;
(PID.TID 0000.0001) rF =   /* W-Interf. R coordinate (  units of r ) */
(PID.TID 0000.0001)                 0.000000000000000E+00,      /* K =  1 */
(PID.TID 0000.0001)                -2.000000000000000E-01,      /* K =  2 */
(PID.TID 0000.0001)                -4.000000000000000E-01,      /* K =  3 */
(PID.TID 0000.0001)                -6.000000000000001E-01,      /* K =  4 */
(PID.TID 0000.0001)                -8.000000000000000E-01,      /* K =  5 */
(PID.TID 0000.0001)                -1.000000000000000E+00,      /* K =  6 */
(PID.TID 0000.0001)                -1.200000000000000E+00,      /* K =  7 */
(PID.TID 0000.0001)                -1.400000000000000E+00,      /* K =  8 */
(PID.TID 0000.0001)                -1.600000000000000E+00,      /* K =  9 */
(PID.TID 0000.0001)                -1.800000000000000E+00,      /* K = 10 */
(PID.TID 0000.0001)                -2.000000000000000E+00,      /* K = 11 */
(PID.TID 0000.0001)                -2.200000000000000E+00,      /* K = 12 */
(PID.TID 0000.0001)                -2.400000000000000E+00,      /* K = 13 */
(PID.TID 0000.0001)                -2.600000000000000E+00,      /* K = 14 */
(PID.TID 0000.0001)                -2.800000000000000E+00,      /* K = 15 */
(PID.TID 0000.0001)                -3.000000000000000E+00,      /* K = 16 */
(PID.TID 0000.0001)                -3.200000000000001E+00,      /* K = 17 */
(PID.TID 0000.0001)                -3.400000000000001E+00,      /* K = 18 */
(PID.TID 0000.0001)                -3.600000000000001E+00,      /* K = 19 */
(PID.TID 0000.0001)                -3.800000000000001E+00,      /* K = 20 */
(PID.TID 0000.0001)                -4.000000000000001E+00,      /* K = 21 */
(PID.TID 0000.0001)                -4.200000000000001E+00,      /* K = 22 */
(PID.TID 0000.0001)                -4.400000000000001E+00,      /* K = 23 */
(PID.TID 0000.0001)                -4.600000000000001E+00,      /* K = 24 */
(PID.TID 0000.0001)                -4.800000000000002E+00,      /* K = 25 */
(PID.TID 0000.0001)                -5.000000000000002E+00,      /* K = 26 */
(PID.TID 0000.0001)                -5.200000000000002E+00,      /* K = 27 */
(PID.TID 0000.0001)                -5.400000000000002E+00,      /* K = 28 */
(PID.TID 0000.0001)                -5.600000000000002E+00,      /* K = 29 */
(PID.TID 0000.0001)                -5.800000000000002E+00,      /* K = 30 */
(PID.TID 0000.0001)                -6.000000000000003E+00,      /* K = 31 */
(PID.TID 0000.0001)                -6.200000000000003E+00,      /* K = 32 */
(PID.TID 0000.0001)                -6.400000000000003E+00,      /* K = 33 */
(PID.TID 0000.0001)                -6.600000000000003E+00,      /* K = 34 */
(PID.TID 0000.0001)                -6.800000000000003E+00,      /* K = 35 */
(PID.TID 0000.0001)                -7.000000000000004E+00,      /* K = 36 */
(PID.TID 0000.0001)                -7.200000000000004E+00,      /* K = 37 */
(PID.TID 0000.0001)                -7.400000000000004E+00,      /* K = 38 */
(PID.TID 0000.0001)                -7.600000000000004E+00,      /* K = 39 */
(PID.TID 0000.0001)                -7.800000000000004E+00,      /* K = 40 */
(PID.TID 0000.0001)                -8.000000000000004E+00,      /* K = 41 */
(PID.TID 0000.0001)                -8.200000000000003E+00,      /* K = 42 */
(PID.TID 0000.0001)                -8.400000000000002E+00,      /* K = 43 */
(PID.TID 0000.0001)                -8.600000000000001E+00,      /* K = 44 */
(PID.TID 0000.0001)                -8.800000000000001E+00,      /* K = 45 */
(PID.TID 0000.0001)                -9.000000000000000E+00,      /* K = 46 */
(PID.TID 0000.0001)                -9.199999999999999E+00,      /* K = 47 */
(PID.TID 0000.0001)                -9.399999999999999E+00,      /* K = 48 */
(PID.TID 0000.0001)                -9.599999999999998E+00,      /* K = 49 */
(PID.TID 0000.0001)                -9.799999999999997E+00,      /* K = 50 */
(PID.TID 0000.0001)                -9.999999999999996E+00       /* K = 51 */
(PID.TID 0000.0001)     ;
(PID.TID 0000.0001) deepFacC = /* deep-model grid factor @ cell-Center (-) */
(PID.TID 0000.0001)    50 @  1.000000000000000E+00              /* K =  1: 50 */
(PID.TID 0000.0001)     ;
(PID.TID 0000.0001) deepFacF = /* deep-model grid factor @ W-Interface (-) */
(PID.TID 0000.0001)    51 @  1.000000000000000E+00              /* K =  1: 51 */
(PID.TID 0000.0001)     ;
(PID.TID 0000.0001) rVel2wUnit = /* convert units: rVel -> wSpeed (=1 if z-coord)*/
(PID.TID 0000.0001)    51 @  1.000000000000000E+00              /* K =  1: 51 */
(PID.TID 0000.0001)     ;
(PID.TID 0000.0001) wUnit2rVel = /* convert units: wSpeed -> rVel (=1 if z-coord)*/
(PID.TID 0000.0001)    51 @  1.000000000000000E+00              /* K =  1: 51 */
(PID.TID 0000.0001)     ;
(PID.TID 0000.0001) dBdrRef = /* Vertical gradient of reference boyancy [(m/s/r)^2)] */
(PID.TID 0000.0001)    50 @  0.000000000000000E+00              /* K =  1: 50 */
(PID.TID 0000.0001)     ;
(PID.TID 0000.0001) rotateGrid = /* use rotated grid ( True/False ) */
(PID.TID 0000.0001)                   F
(PID.TID 0000.0001)     ;
(PID.TID 0000.0001) phiEuler = /* Euler angle, rotation about original z-coordinate [rad] */
(PID.TID 0000.0001)                 0.000000000000000E+00
(PID.TID 0000.0001)     ;
(PID.TID 0000.0001) thetaEuler = /* Euler angle, rotation about new x-coordinate [rad] */
(PID.TID 0000.0001)                 0.000000000000000E+00
(PID.TID 0000.0001)     ;
(PID.TID 0000.0001) psiEuler = /* Euler angle, rotation about new z-coordinate [rad] */
(PID.TID 0000.0001)                 0.000000000000000E+00
(PID.TID 0000.0001)     ;
(PID.TID 0000.0001) dxF =  /* dxF(:,1,:,1) ( units: m ) */
(PID.TID 0000.0001)    52 @  2.000000000000000E-01              /* I =  1: 52 */
(PID.TID 0000.0001)     ;
(PID.TID 0000.0001) dxF =  /* dxF(1,:,1,:) ( units: m ) */
(PID.TID 0000.0001)                 2.000000000000000E-01       /* J =  1 */
(PID.TID 0000.0001)     ;
(PID.TID 0000.0001) dyF =  /* dyF(:,1,:,1) ( units: m ) */
(PID.TID 0000.0001)    52 @  2.000000000000000E-01              /* I =  1: 52 */
(PID.TID 0000.0001)     ;
(PID.TID 0000.0001) dyF =  /* dyF(1,:,1,:) ( units: m ) */
(PID.TID 0000.0001)                 2.000000000000000E-01       /* J =  1 */
(PID.TID 0000.0001)     ;
(PID.TID 0000.0001) dxG =  /* dxG(:,1,:,1) ( units: m ) */
(PID.TID 0000.0001)    52 @  2.000000000000000E-01              /* I =  1: 52 */
(PID.TID 0000.0001)     ;
(PID.TID 0000.0001) dxG =  /* dxG(1,:,1,:) ( units: m ) */
(PID.TID 0000.0001)                 2.000000000000000E-01       /* J =  1 */
(PID.TID 0000.0001)     ;
(PID.TID 0000.0001) dyG =  /* dyG(:,1,:,1) ( units: m ) */
(PID.TID 0000.0001)    52 @  2.000000000000000E-01              /* I =  1: 52 */
(PID.TID 0000.0001)     ;
(PID.TID 0000.0001) dyG =  /* dyG(1,:,1,:) ( units: m ) */
(PID.TID 0000.0001)                 2.000000000000000E-01       /* J =  1 */
(PID.TID 0000.0001)     ;
(PID.TID 0000.0001) dxC =  /* dxC(:,1,:,1) ( units: m ) */
(PID.TID 0000.0001)    52 @  2.000000000000000E-01              /* I =  1: 52 */
(PID.TID 0000.0001)     ;
(PID.TID 0000.0001) dxC =  /* dxC(1,:,1,:) ( units: m ) */
(PID.TID 0000.0001)                 2.000000000000000E-01       /* J =  1 */
(PID.TID 0000.0001)     ;
(PID.TID 0000.0001) dyC =  /* dyC(:,1,:,1) ( units: m ) */
(PID.TID 0000.0001)    52 @  2.000000000000000E-01              /* I =  1: 52 */
(PID.TID 0000.0001)     ;
(PID.TID 0000.0001) dyC =  /* dyC(1,:,1,:) ( units: m ) */
(PID.TID 0000.0001)                 2.000000000000000E-01       /* J =  1 */
(PID.TID 0000.0001)     ;
(PID.TID 0000.0001) dxV =  /* dxV(:,1,:,1) ( units: m ) */
(PID.TID 0000.0001)    52 @  2.000000000000000E-01              /* I =  1: 52 */
(PID.TID 0000.0001)     ;
(PID.TID 0000.0001) dxV =  /* dxV(1,:,1,:) ( units: m ) */
(PID.TID 0000.0001)                 2.000000000000000E-01       /* J =  1 */
(PID.TID 0000.0001)     ;
(PID.TID 0000.0001) dyU =  /* dyU(:,1,:,1) ( units: m ) */
(PID.TID 0000.0001)    52 @  2.000000000000000E-01              /* I =  1: 52 */
(PID.TID 0000.0001)     ;
(PID.TID 0000.0001) dyU =  /* dyU(1,:,1,:) ( units: m ) */
(PID.TID 0000.0001)                 2.000000000000000E-01       /* J =  1 */
(PID.TID 0000.0001)     ;
(PID.TID 0000.0001) rA  =  /* rA (:,1,:,1) ( units: m^2 ) */
(PID.TID 0000.0001)    52 @  4.000000000000001E-02              /* I =  1: 52 */
(PID.TID 0000.0001)     ;
(PID.TID 0000.0001) rA  =  /* rA (1,:,1,:) ( units: m^2 ) */
(PID.TID 0000.0001)                 4.000000000000001E-02       /* J =  1 */
(PID.TID 0000.0001)     ;
(PID.TID 0000.0001) rAw =  /* rAw(:,1,:,1) ( units: m^2 ) */
(PID.TID 0000.0001)    52 @  4.000000000000001E-02              /* I =  1: 52 */
(PID.TID 0000.0001)     ;
(PID.TID 0000.0001) rAw =  /* rAw(1,:,1,:) ( units: m^2 ) */
(PID.TID 0000.0001)                 4.000000000000001E-02       /* J =  1 */
(PID.TID 0000.0001)     ;
(PID.TID 0000.0001) rAs =  /* rAs(:,1,:,1) ( units: m^2 ) */
(PID.TID 0000.0001)    52 @  4.000000000000001E-02              /* I =  1: 52 */
(PID.TID 0000.0001)     ;
(PID.TID 0000.0001) rAs =  /* rAs(1,:,1,:) ( units: m^2 ) */
(PID.TID 0000.0001)                 4.000000000000001E-02       /* J =  1 */
(PID.TID 0000.0001)     ;
(PID.TID 0000.0001) globalArea = /* Integrated horizontal Area (m^2) */
(PID.TID 0000.0001)                 2.000000000000001E+00
(PID.TID 0000.0001)     ;
(PID.TID 0000.0001) // =======================================================
(PID.TID 0000.0001) // End of Model config. summary
(PID.TID 0000.0001) // =======================================================
(PID.TID 0000.0001) 
(PID.TID 0000.0001) == Packages configuration : Check & print summary ==
(PID.TID 0000.0001) 
(PID.TID 0000.0001) // =======================================================
(PID.TID 0000.0001) // CONFIG_CHECK : Normal End
(PID.TID 0000.0001) // =======================================================
(PID.TID 0000.0001) 
(PID.TID 0000.0001)  MDS_READ_FIELD: opening global file: Eta_ini.bin
(PID.TID 0000.0001) Start initial hydrostatic pressure computation
(PID.TID 0000.0001) Pressure is predetermined for buoyancyRelation OCEANIC
(PID.TID 0000.0001) 
(PID.TID 0000.0001)  write diagnostics summary to file ioUnit:      6
Iter.Nb:         0 ; Time(s):  0.0000000000000E+00
------------------------------------------------------------------------
2D/3D diagnostics: Number of lists:     1
------------------------------------------------------------------------
listId=    1 ; file name: surfDiag
 nFlds, nActive,       freq     &     phase        , nLev               
    3  |    3  |        -0.250000         0.000000 |   1
 levels:   1
 diag# | name   |   ipt  |  iMate | kLev|   count |   mate.C|           
    23 |ETAN    |      1 |      0 |   1 |       0 |
    24 |ETANSQ  |      2 |      0 |   1 |       0 |
    25 |DETADT2 |      3 |      0 |   1 |       0 |
------------------------------------------------------------------------
Global & Regional Statistics diagnostics: Number of lists:     1
------------------------------------------------------------------------
listId=   1 ; file name: dynStDiag
 nFlds, nActive,       freq     &     phase        |                    
    5  |    5  |        -0.100000         0.000000 |
 Regions:   0
 diag# | name   |   ipt  |  iMate |    Volume   |   mate-Vol. |         
    23 |ETAN    |      1 |      0 | 0.00000E+00 |
    24 |ETANSQ  |      2 |      0 | 0.00000E+00 |
    25 |DETADT2 |      3 |      0 | 0.00000E+00 |
    30 |UVEL    |      4 |      0 | 0.00000E+00 |
    32 |WVEL    |     54 |      0 | 0.00000E+00 |
------------------------------------------------------------------------
(PID.TID 0000.0001) // =======================================================
(PID.TID 0000.0001) // Model current state
(PID.TID 0000.0001) // =======================================================
(PID.TID 0000.0001) 
(PID.TID 0000.0001) // =======================================================
(PID.TID 0000.0001) // Begin MONITOR dynamic field statistics
(PID.TID 0000.0001) // =======================================================
(PID.TID 0000.0001) %MON time_tsnumber                =                     0
(PID.TID 0000.0001) %MON time_secondsf                =   0.0000000000000E+00
(PID.TID 0000.0001) %MON dynstat_eta_max              =   1.4992598405486E-01
(PID.TID 0000.0001) %MON dynstat_eta_min              =  -1.4992598405486E-01
(PID.TID 0000.0001) %MON dynstat_eta_mean             =  -3.0357660829594E-17
(PID.TID 0000.0001) %MON dynstat_eta_sd               =   1.0606601717798E-01
(PID.TID 0000.0001) %MON dynstat_eta_del2             =   5.6783303734983E-05
(PID.TID 0000.0001) %MON dynstat_uvel_max             =   0.0000000000000E+00
(PID.TID 0000.0001) %MON dynstat_uvel_min             =   0.0000000000000E+00
(PID.TID 0000.0001) %MON dynstat_uvel_mean            =   0.0000000000000E+00
(PID.TID 0000.0001) %MON dynstat_uvel_sd              =   0.0000000000000E+00
(PID.TID 0000.0001) %MON dynstat_uvel_del2            =   0.0000000000000E+00
(PID.TID 0000.0001) %MON dynstat_vvel_max             =   0.0000000000000E+00
(PID.TID 0000.0001) %MON dynstat_vvel_min             =   0.0000000000000E+00
(PID.TID 0000.0001) %MON dynstat_vvel_mean            =   0.0000000000000E+00
(PID.TID 0000.0001) %MON dynstat_vvel_sd              =   0.0000000000000E+00
(PID.TID 0000.0001) %MON dynstat_vvel_del2            =   0.0000000000000E+00
(PID.TID 0000.0001) %MON dynstat_wvel_max             =   0.0000000000000E+00
(PID.TID 0000.0001) %MON dynstat_wvel_min             =   0.0000000000000E+00
(PID.TID 0000.0001) %MON dynstat_wvel_mean            =   0.0000000000000E+00
(PID.TID 0000.0001) %MON dynstat_wvel_sd              =   0.0000000000000E+00
(PID.TID 0000.0001) %MON dynstat_wvel_del2            =   0.0000000000000E+00
(PID.TID 0000.0001) %MON dynstat_theta_max            =   1.0000000000000E+01
(PID.TID 0000.0001) %MON dynstat_theta_min            =   1.0000000000000E+01
(PID.TID 0000.0001) %MON dynstat_theta_mean           =   9.9999999999999E+00
(PID.TID 0000.0001) %MON dynstat_theta_sd             =   1.4921397450962E-13
(PID.TID 0000.0001) %MON dynstat_theta_del2           =   0.0000000000000E+00
(PID.TID 0000.0001) %MON dynstat_salt_max             =   3.5000000000000E+01
(PID.TID 0000.0001) %MON dynstat_salt_min             =   3.5000000000000E+01
(PID.TID 0000.0001) %MON dynstat_salt_mean            =   3.5000000000000E+01
(PID.TID 0000.0001) %MON dynstat_salt_sd              =   9.9475983006414E-14
(PID.TID 0000.0001) %MON dynstat_salt_del2            =   0.0000000000000E+00
(PID.TID 0000.0001) %MON advcfl_uvel_max              =   0.0000000000000E+00
(PID.TID 0000.0001) %MON advcfl_vvel_max              =   0.0000000000000E+00
(PID.TID 0000.0001) %MON advcfl_wvel_max              =   0.0000000000000E+00
(PID.TID 0000.0001) %MON advcfl_W_hf_max              =   0.0000000000000E+00
(PID.TID 0000.0001) %MON pe_b_mean                    =   5.6250000000000E-03
(PID.TID 0000.0001) %MON ke_max                       =   0.0000000000000E+00
(PID.TID 0000.0001) %MON ke_mean                      =   0.0000000000000E+00
(PID.TID 0000.0001) %MON ke_vol                       =   2.0000000000000E+01
(PID.TID 0000.0001) // =======================================================
(PID.TID 0000.0001) // End MONITOR dynamic field statistics
(PID.TID 0000.0001) // =======================================================
(PID.TID 0000.0001) SOLVE_FOR_PRESSURE: putPmEinXvector =    F
(PID.TID 0000.0001) SOLVE_FOR_PRESSURE: zeroPsNH=    F , zeroMeanPnh=    F
(PID.TID 0000.0001) SOLVE_FOR_PRESSURE: oldFreeSurfTerm =    F
 cg2d: Sum(rhs),rhsMax =   1.24344978758018E-14  9.59467129014663E+01
(PID.TID 0000.0001)                    cg2d_init_res =    6.16989841149630E-04
(PID.TID 0000.0001)                       cg2d_iters =     4
(PID.TID 0000.0001)                         cg2d_res =    8.41529794187483E-16
 cg3d: Sum(rhs),rhsMax =   9.09494701772928E-13  1.18330576055741E-02
(PID.TID 0000.0001)                    cg3d_init_res =    3.53510375261774E+01
(PID.TID 0000.0001)                       cg3d_iters =   142
(PID.TID 0000.0001)                         cg3d_res =    9.98152336859818E-12
(PID.TID 0000.0001) // =======================================================
(PID.TID 0000.0001) // Begin MONITOR dynamic field statistics
(PID.TID 0000.0001) // =======================================================
(PID.TID 0000.0001) %MON time_tsnumber                =                     1
(PID.TID 0000.0001) %MON time_secondsf                =   5.0000000000000E-03
(PID.TID 0000.0001) %MON dynstat_eta_max              =   1.4992012243936E-01
(PID.TID 0000.0001) %MON dynstat_eta_min              =  -1.4992012243936E-01
(PID.TID 0000.0001) %MON dynstat_eta_mean             =  -4.3368086899420E-17
(PID.TID 0000.0001) %MON dynstat_eta_sd               =   1.0606187034370E-01
(PID.TID 0000.0001) %MON dynstat_eta_del2             =   5.6781083693573E-05
(PID.TID 0000.0001) %MON dynstat_uvel_max             =   2.2820774034824E-03
(PID.TID 0000.0001) %MON dynstat_uvel_min             =   1.2773668054747E-05
(PID.TID 0000.0001) %MON dynstat_uvel_mean            =   4.8498060885097E-04
(PID.TID 0000.0001) %MON dynstat_uvel_sd              =   4.7297372541867E-04
(PID.TID 0000.0001) %MON dynstat_uvel_del2            =   5.4004410612281E-08
(PID.TID 0000.0001) %MON dynstat_vvel_max             =   0.0000000000000E+00
(PID.TID 0000.0001) %MON dynstat_vvel_min             =   0.0000000000000E+00
(PID.TID 0000.0001) %MON dynstat_vvel_mean            =   0.0000000000000E+00
(PID.TID 0000.0001) %MON dynstat_vvel_sd              =   0.0000000000000E+00
(PID.TID 0000.0001) %MON dynstat_vvel_del2            =   0.0000000000000E+00
(PID.TID 0000.0001) %MON dynstat_wvel_max             =   2.3446461982992E-03
(PID.TID 0000.0001) %MON dynstat_wvel_min             =  -2.3446461982996E-03
(PID.TID 0000.0001) %MON dynstat_wvel_mean            =  -6.5709222574879E-20
(PID.TID 0000.0001) %MON dynstat_wvel_sd              =   6.5899147474173E-04
(PID.TID 0000.0001) %MON dynstat_wvel_del2            =   5.1206719809167E-08
(PID.TID 0000.0001) %MON dynstat_theta_max            =   1.0000000000000E+01
(PID.TID 0000.0001) %MON dynstat_theta_min            =   1.0000000000000E+01
(PID.TID 0000.0001) %MON dynstat_theta_mean           =   9.9999999999999E+00
(PID.TID 0000.0001) %MON dynstat_theta_sd             =   1.4921397450962E-13
(PID.TID 0000.0001) %MON dynstat_theta_del2           =   0.0000000000000E+00
(PID.TID 0000.0001) %MON dynstat_salt_max             =   3.5000000000000E+01
(PID.TID 0000.0001) %MON dynstat_salt_min             =   3.5000000000000E+01
(PID.TID 0000.0001) %MON dynstat_salt_mean            =   3.5000000000000E+01
(PID.TID 0000.0001) %MON dynstat_salt_sd              =   9.9475983006414E-14
(PID.TID 0000.0001) %MON dynstat_salt_del2            =   0.0000000000000E+00
(PID.TID 0000.0001) %MON advcfl_uvel_max              =   5.7051935087059E-05
(PID.TID 0000.0001) %MON advcfl_vvel_max              =   0.0000000000000E+00
(PID.TID 0000.0001) %MON advcfl_wvel_max              =   1.1723230991498E-04
(PID.TID 0000.0001) %MON advcfl_W_hf_max              =   5.5033834313222E-05
(PID.TID 0000.0001) %MON pe_b_mean                    =   5.6245601704023E-03
(PID.TID 0000.0001) %MON ke_max                       =   2.6000019083191E-06
(PID.TID 0000.0001) %MON ke_mean                      =   4.2607261003790E-07
(PID.TID 0000.0001) %MON ke_vol                       =   2.0000000000000E+01
(PID.TID 0000.0001) // =======================================================
(PID.TID 0000.0001) // End MONITOR dynamic field statistics
(PID.TID 0000.0001) // =======================================================
 Computing Diagnostic #     23  ETAN         Counter:       1   Parms: SM      M1      
 Computing Diagnostic #     24  ETANSQ       Counter:       1   Parms: SM P    M1      
 Computing Diagnostic #     25  DETADT2      Counter:       1   Parms: SM      M1      
 Compute Stats, Diag. #     23  ETAN      vol(   0 ): 2.000E+00  Parms: SM      M1      
 Compute Stats, Diag. #     24  ETANSQ    vol(   0 ): 2.000E+00  Parms: SM P    M1      
 Compute Stats, Diag. #     25  DETADT2   vol(   0 ): 2.000E+00  Parms: SM      M1      
 Compute Stats, Diag. #     30  UVEL      vol(   0 ): 1.960E+01  Parms: UUR     MR      
 Compute Stats, Diag. #     32  WVEL      vol(   0 ): 1.980E+01  Parms: WM      LR      
 cg2d: Sum(rhs),rhsMax =   1.24344978758018E-14  9.59435409541832E+01
(PID.TID 0000.0001)                    cg2d_init_res =    5.86783969652715E-04
(PID.TID 0000.0001)                       cg2d_iters =     4
(PID.TID 0000.0001)                         cg2d_res =    8.00331156670847E-16
 cg3d: Sum(rhs),rhsMax =  -4.79974184137195E+01  1.03429831813800E-06
(PID.TID 0000.0001)                    cg3d_init_res =    4.04470901061355E+05
(PID.TID 0000.0001)                       cg3d_iters =   200
(PID.TID 0000.0001)                         cg3d_res =    1.07472529086735E-07
(PID.TID 0000.0001) // =======================================================
(PID.TID 0000.0001) // Begin MONITOR dynamic field statistics
(PID.TID 0000.0001) // =======================================================
(PID.TID 0000.0001) %MON time_tsnumber                =                     2
(PID.TID 0000.0001) %MON time_secondsf                =   1.0000000000000E-02
(PID.TID 0000.0001) %MON dynstat_eta_max              =   1.4990253805226E-01
(PID.TID 0000.0001) %MON dynstat_eta_min              =  -1.4990253805018E-01
(PID.TID 0000.0001) %MON dynstat_eta_mean             =  -5.2041704279304E-17
(PID.TID 0000.0001) %MON dynstat_eta_sd               =   1.0604943016513E-01
(PID.TID 0000.0001) %MON dynstat_eta_del2             =   5.6774423742936E-05
(PID.TID 0000.0001) %MON dynstat_uvel_max             =   4.5639763450577E-03
(PID.TID 0000.0001) %MON dynstat_uvel_min             =   2.5546337287554E-05
(PID.TID 0000.0001) %MON dynstat_uvel_mean            =   9.6992329515981E-04
(PID.TID 0000.0001) %MON dynstat_uvel_sd              =   9.4591046673240E-04
(PID.TID 0000.0001) %MON dynstat_uvel_del2            =   1.0800459838341E-07
(PID.TID 0000.0001) %MON dynstat_vvel_max             =   0.0000000000000E+00
(PID.TID 0000.0001) %MON dynstat_vvel_min             =   0.0000000000000E+00
(PID.TID 0000.0001) %MON dynstat_vvel_mean            =   0.0000000000000E+00
(PID.TID 0000.0001) %MON dynstat_vvel_sd              =   0.0000000000000E+00
(PID.TID 0000.0001) %MON dynstat_vvel_del2            =   0.0000000000000E+00
(PID.TID 0000.0001) %MON dynstat_wvel_max             =   4.6891094757190E-03
(PID.TID 0000.0001) %MON dynstat_wvel_min             =  -4.6891086432527E-03
(PID.TID 0000.0001) %MON dynstat_wvel_mean            =   3.5044918706602E-19
(PID.TID 0000.0001) %MON dynstat_wvel_sd              =   1.3179314206513E-03
(PID.TID 0000.0001) %MON dynstat_wvel_del2            =   1.0240943558606E-07
(PID.TID 0000.0001) %MON dynstat_theta_max            =   1.0000000000000E+01
(PID.TID 0000.0001) %MON dynstat_theta_min            =   1.0000000000000E+01
(PID.TID 0000.0001) %MON dynstat_theta_mean           =   9.9999999999999E+00
(PID.TID 0000.0001) %MON dynstat_theta_sd             =   1.4921397450962E-13
(PID.TID 0000.0001) %MON dynstat_theta_del2           =   0.0000000000000E+00
(PID.TID 0000.0001) %MON dynstat_salt_max             =   3.5000000000000E+01
(PID.TID 0000.0001) %MON dynstat_salt_min             =   3.5000000000000E+01
(PID.TID 0000.0001) %MON dynstat_salt_mean            =   3.5000000000000E+01
(PID.TID 0000.0001) %MON dynstat_salt_sd              =   9.9475983006414E-14
(PID.TID 0000.0001) %MON dynstat_salt_del2            =   0.0000000000000E+00
(PID.TID 0000.0001) %MON advcfl_uvel_max              =   1.1409940862644E-04
(PID.TID 0000.0001) %MON advcfl_vvel_max              =   0.0000000000000E+00
(PID.TID 0000.0001) %MON advcfl_wvel_max              =   2.3445547378595E-04
(PID.TID 0000.0001) %MON advcfl_W_hf_max              =   1.1006336556739E-04
(PID.TID 0000.0001) %MON pe_b_mean                    =   5.6232408191741E-03
(PID.TID 0000.0001) %MON ke_max                       =   1.0399195279639E-05
(PID.TID 0000.0001) %MON ke_mean                      =   1.7041571775811E-06
(PID.TID 0000.0001) %MON ke_vol                       =   2.0000000000000E+01
(PID.TID 0000.0001) // =======================================================
(PID.TID 0000.0001) // End MONITOR dynamic field statistics
(PID.TID 0000.0001) // =======================================================
 cg2d: Sum(rhs),rhsMax =   1.24344978758018E-14  9.59167026094851E+01
(PID.TID 0000.0001)                    cg2d_init_res =    1.39970235794300E-03
(PID.TID 0000.0001)                       cg2d_iters =     4
(PID.TID 0000.0001)                         cg2d_res =    1.90909340583171E-15
 cg3d: Sum(rhs),rhsMax =  -1.27600814040534E-02  1.18315387154067E-02
(PID.TID 0000.0001)                    cg3d_init_res =    3.53528114075143E+01
(PID.TID 0000.0001)                       cg3d_iters =   200
(PID.TID 0000.0001)                         cg3d_res =    1.96108938242829E-11
(PID.TID 0000.0001) // =======================================================
(PID.TID 0000.0001) // Begin MONITOR dynamic field statistics
(PID.TID 0000.0001) // =======================================================
(PID.TID 0000.0001) %MON time_tsnumber                =                     3
(PID.TID 0000.0001) %MON time_secondsf                =   1.5000000000000E-02
(PID.TID 0000.0001) %MON dynstat_eta_max              =   1.4987323227274E-01
(PID.TID 0000.0001) %MON dynstat_eta_min              =  -1.4987323225809E-01
(PID.TID 0000.0001) %MON dynstat_eta_mean             =  -3.9031278209478E-17
(PID.TID 0000.0001) %MON dynstat_eta_sd               =   1.0602869761500E-01
(PID.TID 0000.0001) %MON dynstat_eta_del2             =   5.6763324403839E-05
(PID.TID 0000.0001) %MON dynstat_uvel_max             =   6.8455183950729E-03
(PID.TID 0000.0001) %MON dynstat_uvel_min             =   3.8317008949406E-05
(PID.TID 0000.0001) %MON dynstat_uvel_mean            =   1.4547901395754E-03
(PID.TID 0000.0001) %MON dynstat_uvel_sd              =   1.4187732433720E-03
(PID.TID 0000.0001) %MON dynstat_uvel_del2            =   1.6199634085176E-07
(PID.TID 0000.0001) %MON dynstat_vvel_max             =   0.0000000000000E+00
(PID.TID 0000.0001) %MON dynstat_vvel_min             =   0.0000000000000E+00
(PID.TID 0000.0001) %MON dynstat_vvel_mean            =   0.0000000000000E+00
(PID.TID 0000.0001) %MON dynstat_vvel_sd              =   0.0000000000000E+00
(PID.TID 0000.0001) %MON dynstat_vvel_del2            =   0.0000000000000E+00
(PID.TID 0000.0001) %MON dynstat_wvel_max             =   7.0332073600478E-03
(PID.TID 0000.0001) %MON dynstat_wvel_min             =  -7.0332031636279E-03
(PID.TID 0000.0001) %MON dynstat_wvel_mean            =   8.7612296766505E-20
(PID.TID 0000.0001) %MON dynstat_wvel_sd              =   1.9767683129348E-03
(PID.TID 0000.0001) %MON dynstat_wvel_del2            =   1.5360414361382E-07
(PID.TID 0000.0001) %MON dynstat_theta_max            =   1.0000000000000E+01
(PID.TID 0000.0001) %MON dynstat_theta_min            =   1.0000000000000E+01
(PID.TID 0000.0001) %MON dynstat_theta_mean           =   9.9999999999999E+00
(PID.TID 0000.0001) %MON dynstat_theta_sd             =   1.4921397450962E-13
(PID.TID 0000.0001) %MON dynstat_theta_del2           =   0.0000000000000E+00
(PID.TID 0000.0001) %MON dynstat_salt_max             =   3.5000000000000E+01
(PID.TID 0000.0001) %MON dynstat_salt_min             =   3.5000000000000E+01
(PID.TID 0000.0001) %MON dynstat_salt_mean            =   3.5000000000000E+01
(PID.TID 0000.0001) %MON dynstat_salt_sd              =   9.9475983006414E-14
(PID.TID 0000.0001) %MON dynstat_salt_del2            =   0.0000000000000E+00
(PID.TID 0000.0001) %MON advcfl_uvel_max              =   1.7113795987682E-04
(PID.TID 0000.0001) %MON advcfl_vvel_max              =   0.0000000000000E+00
(PID.TID 0000.0001) %MON advcfl_wvel_max              =   3.5166036800239E-04
(PID.TID 0000.0001) %MON advcfl_W_hf_max              =   1.6508429127198E-04
(PID.TID 0000.0001) %MON pe_b_mean                    =   5.6210423589661E-03
(PID.TID 0000.0001) %MON ke_max                       =   2.3395144879254E-05
(PID.TID 0000.0001) %MON ke_mean                      =   3.8338539577948E-06
(PID.TID 0000.0001) %MON ke_vol                       =   2.0000000000000E+01
(PID.TID 0000.0001) // =======================================================
(PID.TID 0000.0001) // End MONITOR dynamic field statistics
(PID.TID 0000.0001) // =======================================================
 cg2d: Sum(rhs),rhsMax =   1.24344978758018E-14  9.58985284583215E+01
(PID.TID 0000.0001)                    cg2d_init_res =    1.36957179176033E-03
(PID.TID 0000.0001)                       cg2d_iters =     4
(PID.TID 0000.0001)                         cg2d_res =    1.86799747929559E-15
 cg3d: Sum(rhs),rhsMax =  -5.84436126740884E+01  4.24575156585290E-06
(PID.TID 0000.0001)                    cg3d_init_res =    9.85399799566204E+04
(PID.TID 0000.0001)                       cg3d_iters =   200
(PID.TID 0000.0001)                         cg3d_res =    5.22625123295590E-08
(PID.TID 0000.0001) // =======================================================
(PID.TID 0000.0001) // Begin MONITOR dynamic field statistics
(PID.TID 0000.0001) // =======================================================
(PID.TID 0000.0001) %MON time_tsnumber                =                     4
(PID.TID 0000.0001) %MON time_secondsf                =   2.0000000000000E-02
(PID.TID 0000.0001) %MON dynstat_eta_max              =   1.4983220739966E-01
(PID.TID 0000.0001) %MON dynstat_eta_min              =  -1.4983220734730E-01
(PID.TID 0000.0001) %MON dynstat_eta_mean             =  -3.9031278209478E-17
(PID.TID 0000.0001) %MON dynstat_eta_sd               =   1.0599967431446E-01
(PID.TID 0000.0001) %MON dynstat_eta_del2             =   5.6747786544180E-05
(PID.TID 0000.0001) %MON dynstat_uvel_max             =   9.1265251514388E-03
(PID.TID 0000.0001) %MON dynstat_uvel_min             =   5.1084684452672E-05
(PID.TID 0000.0001) %MON dynstat_uvel_mean            =   1.9395432286536E-03
(PID.TID 0000.0001) %MON dynstat_uvel_sd              =   1.8915250805088E-03
(PID.TID 0000.0001) %MON dynstat_uvel_del2            =   2.1597541621350E-07
(PID.TID 0000.0001) %MON dynstat_vvel_max             =   0.0000000000000E+00
(PID.TID 0000.0001) %MON dynstat_vvel_min             =   0.0000000000000E+00
(PID.TID 0000.0001) %MON dynstat_vvel_mean            =   0.0000000000000E+00
(PID.TID 0000.0001) %MON dynstat_vvel_sd              =   0.0000000000000E+00
(PID.TID 0000.0001) %MON dynstat_vvel_del2            =   0.0000000000000E+00
(PID.TID 0000.0001) %MON dynstat_wvel_max             =   9.3767569561532E-03
(PID.TID 0000.0001) %MON dynstat_wvel_min             =  -9.3767460679307E-03
(PID.TID 0000.0001) %MON dynstat_wvel_mean            =   7.0089837413204E-19
(PID.TID 0000.0001) %MON dynstat_wvel_sd              =   2.6354506348504E-03
(PID.TID 0000.0001) %MON dynstat_wvel_del2            =   2.0478684079881E-07
(PID.TID 0000.0001) %MON dynstat_theta_max            =   1.0000000000000E+01
(PID.TID 0000.0001) %MON dynstat_theta_min            =   1.0000000000000E+01
(PID.TID 0000.0001) %MON dynstat_theta_mean           =   9.9999999999999E+00
(PID.TID 0000.0001) %MON dynstat_theta_sd             =   1.4921397450962E-13
(PID.TID 0000.0001) %MON dynstat_theta_del2           =   0.0000000000000E+00
(PID.TID 0000.0001) %MON dynstat_salt_max             =   3.5000000000000E+01
(PID.TID 0000.0001) %MON dynstat_salt_min             =   3.5000000000000E+01
(PID.TID 0000.0001) %MON dynstat_salt_mean            =   3.5000000000000E+01
(PID.TID 0000.0001) %MON dynstat_salt_sd              =   9.9475983006414E-14
(PID.TID 0000.0001) %MON dynstat_salt_del2            =   0.0000000000000E+00
(PID.TID 0000.0001) %MON advcfl_uvel_max              =   2.2816312878597E-04
(PID.TID 0000.0001) %MON advcfl_vvel_max              =   0.0000000000000E+00
(PID.TID 0000.0001) %MON advcfl_wvel_max              =   4.6883784780766E-04
(PID.TID 0000.0001) %MON advcfl_W_hf_max              =   2.2009230935651E-04
(PID.TID 0000.0001) %MON pe_b_mean                    =   5.6179654773861E-03
(PID.TID 0000.0001) %MON ke_max                       =   4.1583791864824E-05
(PID.TID 0000.0001) %MON ke_mean                      =   6.8144968488695E-06
(PID.TID 0000.0001) %MON ke_vol                       =   2.0000000000000E+01
(PID.TID 0000.0001) // =======================================================
(PID.TID 0000.0001) // End MONITOR dynamic field statistics
(PID.TID 0000.0001) // =======================================================
 cg2d: Sum(rhs),rhsMax =   1.42108547152020E-14  9.58566914404958E+01
(PID.TID 0000.0001)                    cg2d_init_res =    2.18321591821022E-03
(PID.TID 0000.0001)                       cg2d_iters =     4
(PID.TID 0000.0001)                         cg2d_res =    2.97774958299964E-15
 cg3d: Sum(rhs),rhsMax =  -3.51299269243555E-02  1.18284194071545E-02
(PID.TID 0000.0001)                    cg3d_init_res =    3.53593704020002E+01
(PID.TID 0000.0001)                       cg3d_iters =   200
(PID.TID 0000.0001)                         cg3d_res =    3.14157681110674E-11
(PID.TID 0000.0001) // =======================================================
(PID.TID 0000.0001) // Begin MONITOR dynamic field statistics
(PID.TID 0000.0001) // =======================================================
(PID.TID 0000.0001) %MON time_tsnumber                =                     5
(PID.TID 0000.0001) %MON time_secondsf                =   2.5000000000000E-02
(PID.TID 0000.0001) %MON dynstat_eta_max              =   1.4977946665061E-01
(PID.TID 0000.0001) %MON dynstat_eta_min              =  -1.4977946651599E-01
(PID.TID 0000.0001) %MON dynstat_eta_mean             =  -4.3368086899420E-17
(PID.TID 0000.0001) %MON dynstat_eta_sd               =   1.0596236253297E-01
(PID.TID 0000.0001) %MON dynstat_eta_del2             =   5.6727811378920E-05
(PID.TID 0000.0001) %MON dynstat_uvel_max             =   1.1406818253585E-02
(PID.TID 0000.0001) %MON dynstat_uvel_min             =   6.3848365442476E-05
(PID.TID 0000.0001) %MON dynstat_uvel_mean            =   2.4241446578216E-03
(PID.TID 0000.0001) %MON dynstat_uvel_sd              =   2.3641290119469E-03
(PID.TID 0000.0001) %MON dynstat_uvel_del2            =   2.6993760365330E-07
(PID.TID 0000.0001) %MON dynstat_vvel_max             =   0.0000000000000E+00
(PID.TID 0000.0001) %MON dynstat_vvel_min             =   0.0000000000000E+00
(PID.TID 0000.0001) %MON dynstat_vvel_mean            =   0.0000000000000E+00
(PID.TID 0000.0001) %MON dynstat_vvel_sd              =   0.0000000000000E+00
(PID.TID 0000.0001) %MON dynstat_vvel_del2            =   0.0000000000000E+00
(PID.TID 0000.0001) %MON dynstat_wvel_max             =   1.1719575566872E-02
(PID.TID 0000.0001) %MON dynstat_wvel_min             =  -1.1719553552182E-02
(PID.TID 0000.0001) %MON dynstat_wvel_mean            =  -7.0089837413204E-19
(PID.TID 0000.0001) %MON dynstat_wvel_sd              =   3.2939268817367E-03
(PID.TID 0000.0001) %MON dynstat_wvel_del2            =   2.5595352499171E-07
(PID.TID 0000.0001) %MON dynstat_theta_max            =   1.0000000000000E+01
(PID.TID 0000.0001) %MON dynstat_theta_min            =   1.0000000000000E+01
(PID.TID 0000.0001) %MON dynstat_theta_mean           =   9.9999999999999E+00
(PID.TID 0000.0001) %MON dynstat_theta_sd             =   1.4921397450962E-13
(PID.TID 0000.0001) %MON dynstat_theta_del2           =   0.0000000000000E+00
(PID.TID 0000.0001) %MON dynstat_salt_max             =   3.5000000000000E+01
(PID.TID 0000.0001) %MON dynstat_salt_min             =   3.5000000000000E+01
(PID.TID 0000.0001) %MON dynstat_salt_mean            =   3.5000000000000E+01
(PID.TID 0000.0001) %MON dynstat_salt_sd              =   9.9475983006414E-14
(PID.TID 0000.0001) %MON dynstat_salt_del2            =   0.0000000000000E+00
(PID.TID 0000.0001) %MON advcfl_uvel_max              =   2.8517045633962E-04
(PID.TID 0000.0001) %MON advcfl_vvel_max              =   0.0000000000000E+00
(PID.TID 0000.0001) %MON advcfl_wvel_max              =   5.8597877834361E-04
(PID.TID 0000.0001) %MON advcfl_W_hf_max              =   2.7508311883485E-04
(PID.TID 0000.0001) %MON pe_b_mean                    =   5.6140111367841E-03
(PID.TID 0000.0001) %MON ke_max                       =   6.4959455916840E-05
(PID.TID 0000.0001) %MON ke_mean                      =   1.0645153600191E-05
(PID.TID 0000.0001) %MON ke_vol                       =   2.0000000000000E+01
(PID.TID 0000.0001) // =======================================================
(PID.TID 0000.0001) // End MONITOR dynamic field statistics
(PID.TID 0000.0001) // =======================================================
 cg2d: Sum(rhs),rhsMax =   1.06581410364015E-14  9.58235233228916E+01
(PID.TID 0000.0001)                    cg2d_init_res =    2.15327404097708E-03
(PID.TID 0000.0001)                       cg2d_iters =     4
(PID.TID 0000.0001)                         cg2d_res =    2.93691101427075E-15
 cg3d: Sum(rhs),rhsMax =  -6.03007561622658E+01  9.59658158889397E-06
(PID.TID 0000.0001)                    cg3d_init_res =    4.35997916453259E+04
(PID.TID 0000.0001)                       cg3d_iters =   200
(PID.TID 0000.0001)                         cg3d_res =    3.79329327737791E-08
(PID.TID 0000.0001) // =======================================================
(PID.TID 0000.0001) // Begin MONITOR dynamic field statistics
(PID.TID 0000.0001) // =======================================================
(PID.TID 0000.0001) %MON time_tsnumber                =                     6
(PID.TID 0000.0001) %MON time_secondsf                =   3.0000000000000E-02
(PID.TID 0000.0001) %MON dynstat_eta_max              =   1.4971501416206E-01
(PID.TID 0000.0001) %MON dynstat_eta_min              =  -1.4971501387570E-01
(PID.TID 0000.0001) %MON dynstat_eta_mean             =  -3.0357660829594E-17
(PID.TID 0000.0001) %MON dynstat_eta_sd               =   1.0591676518805E-01
(PID.TID 0000.0001) %MON dynstat_eta_del2             =   5.6703400469987E-05
(PID.TID 0000.0001) %MON dynstat_uvel_max             =   1.3686219396210E-02
(PID.TID 0000.0001) %MON dynstat_uvel_min             =   7.6607053875931E-05
(PID.TID 0000.0001) %MON dynstat_uvel_mean            =   2.9085565343289E-03
(PID.TID 0000.0001) %MON dynstat_uvel_sd              =   2.8365480829889E-03
(PID.TID 0000.0001) %MON dynstat_uvel_del2            =   3.2387868367282E-07
(PID.TID 0000.0001) %MON dynstat_vvel_max             =   0.0000000000000E+00
(PID.TID 0000.0001) %MON dynstat_vvel_min             =   0.0000000000000E+00
(PID.TID 0000.0001) %MON dynstat_vvel_mean            =   0.0000000000000E+00
(PID.TID 0000.0001) %MON dynstat_vvel_sd              =   0.0000000000000E+00
(PID.TID 0000.0001) %MON dynstat_vvel_del2            =   0.0000000000000E+00
(PID.TID 0000.0001) %MON dynstat_wvel_max             =   1.4061480550926E-02
(PID.TID 0000.0001) %MON dynstat_wvel_min             =  -1.4061441870371E-02
(PID.TID 0000.0001) %MON dynstat_wvel_mean            =  -1.2265721547311E-18
(PID.TID 0000.0001) %MON dynstat_wvel_sd              =   3.9521455650363E-03
(PID.TID 0000.0001) %MON dynstat_wvel_del2            =   3.0710019528801E-07
(PID.TID 0000.0001) %MON dynstat_theta_max            =   1.0000000000000E+01
(PID.TID 0000.0001) %MON dynstat_theta_min            =   1.0000000000000E+01
(PID.TID 0000.0001) %MON dynstat_theta_mean           =   9.9999999999999E+00
(PID.TID 0000.0001) %MON dynstat_theta_sd             =   1.4921397450962E-13
(PID.TID 0000.0001) %MON dynstat_theta_del2           =   0.0000000000000E+00
(PID.TID 0000.0001) %MON dynstat_salt_max             =   3.5000000000000E+01
(PID.TID 0000.0001) %MON dynstat_salt_min             =   3.5000000000000E+01
(PID.TID 0000.0001) %MON dynstat_salt_mean            =   3.5000000000000E+01
(PID.TID 0000.0001) %MON dynstat_salt_sd              =   9.9475983006414E-14
(PID.TID 0000.0001) %MON dynstat_salt_del2            =   0.0000000000000E+00
(PID.TID 0000.0001) %MON advcfl_uvel_max              =   3.4215548490524E-04
(PID.TID 0000.0001) %MON advcfl_vvel_max              =   0.0000000000000E+00
(PID.TID 0000.0001) %MON advcfl_wvel_max              =   7.0307402754628E-04
(PID.TID 0000.0001) %MON advcfl_W_hf_max              =   3.3005242005285E-04
(PID.TID 0000.0001) %MON pe_b_mean                    =   5.6091805739505E-03
(PID.TID 0000.0001) %MON ke_max                       =   9.3514836830090E-05
(PID.TID 0000.0001) %MON ke_mean                      =   1.5324626103632E-05
(PID.TID 0000.0001) %MON ke_vol                       =   2.0000000000000E+01
(PID.TID 0000.0001) // =======================================================
(PID.TID 0000.0001) // End MONITOR dynamic field statistics
(PID.TID 0000.0001) // =======================================================
 cg2d: Sum(rhs),rhsMax =   1.24344978758018E-14  9.57666982212867E+01
(PID.TID 0000.0001)                    cg2d_init_res =    2.96802278539941E-03
(PID.TID 0000.0001)                       cg2d_iters =     4
(PID.TID 0000.0001)                         cg2d_res =    4.04816973682179E-15
 cg3d: Sum(rhs),rhsMax =  -6.86716790720538E-02  1.18237409680216E-02
(PID.TID 0000.0001)                    cg3d_init_res =    3.53705983158483E+01
(PID.TID 0000.0001)                       cg3d_iters =   200
(PID.TID 0000.0001)                         cg3d_res =    3.92034519217094E-11
(PID.TID 0000.0001) // =======================================================
(PID.TID 0000.0001) // Begin MONITOR dynamic field statistics
(PID.TID 0000.0001) // =======================================================
(PID.TID 0000.0001) %MON time_tsnumber                =                     7
(PID.TID 0000.0001) %MON time_secondsf                =   3.5000000000000E-02
(PID.TID 0000.0001) %MON dynstat_eta_max              =   1.4963885498901E-01
(PID.TID 0000.0001) %MON dynstat_eta_min              =  -1.4963885445098E-01
(PID.TID 0000.0001) %MON dynstat_eta_mean             =  -3.9031278209478E-17
(PID.TID 0000.0001) %MON dynstat_eta_sd               =   1.0586288584514E-01
(PID.TID 0000.0001) %MON dynstat_eta_del2             =   5.6674555726156E-05
(PID.TID 0000.0001) %MON dynstat_uvel_max             =   1.5964550343115E-02
(PID.TID 0000.0001) %MON dynstat_uvel_min             =   8.9359752101211E-05
(PID.TID 0000.0001) %MON dynstat_uvel_mean            =   3.3927409802024E-03
(PID.TID 0000.0001) %MON dynstat_uvel_sd              =   3.3087453533125E-03
(PID.TID 0000.0001) %MON dynstat_uvel_del2            =   3.7779443842004E-07
(PID.TID 0000.0001) %MON dynstat_vvel_max             =   0.0000000000000E+00
(PID.TID 0000.0001) %MON dynstat_vvel_min             =   0.0000000000000E+00
(PID.TID 0000.0001) %MON dynstat_vvel_mean            =   0.0000000000000E+00
(PID.TID 0000.0001) %MON dynstat_vvel_sd              =   0.0000000000000E+00
(PID.TID 0000.0001) %MON dynstat_vvel_del2            =   0.0000000000000E+00
(PID.TID 0000.0001) %MON dynstat_wvel_max             =   1.6402289336897E-02
(PID.TID 0000.0001) %MON dynstat_wvel_min             =  -1.6402227348946E-02
(PID.TID 0000.0001) %MON dynstat_wvel_mean            =   2.1026951223961E-18
(PID.TID 0000.0001) %MON dynstat_wvel_sd              =   4.6100552163204E-03
(PID.TID 0000.0001) %MON dynstat_wvel_del2            =   3.5822285235592E-07
(PID.TID 0000.0001) %MON dynstat_theta_max            =   1.0000000000000E+01
(PID.TID 0000.0001) %MON dynstat_theta_min            =   1.0000000000000E+01
(PID.TID 0000.0001) %MON dynstat_theta_mean           =   9.9999999999999E+00
(PID.TID 0000.0001) %MON dynstat_theta_sd             =   1.4921397450962E-13
(PID.TID 0000.0001) %MON dynstat_theta_del2           =   0.0000000000000E+00
(PID.TID 0000.0001) %MON dynstat_salt_max             =   3.5000000000000E+01
(PID.TID 0000.0001) %MON dynstat_salt_min             =   3.5000000000000E+01
(PID.TID 0000.0001) %MON dynstat_salt_mean            =   3.5000000000000E+01
(PID.TID 0000.0001) %MON dynstat_salt_sd              =   9.9475983006414E-14
(PID.TID 0000.0001) %MON dynstat_salt_del2            =   0.0000000000000E+00
(PID.TID 0000.0001) %MON advcfl_uvel_max              =   3.9911375857788E-04
(PID.TID 0000.0001) %MON advcfl_vvel_max              =   0.0000000000000E+00
(PID.TID 0000.0001) %MON advcfl_wvel_max              =   8.2011446684486E-04
(PID.TID 0000.0001) %MON advcfl_W_hf_max              =   3.8499591502135E-04
(PID.TID 0000.0001) %MON pe_b_mean                    =   5.6034752997304E-03
(PID.TID 0000.0001) %MON ke_max                       =   1.2724101678276E-04
(PID.TID 0000.0001) %MON ke_mean                      =   2.0851450767950E-05
(PID.TID 0000.0001) %MON ke_vol                       =   2.0000000000000E+01
(PID.TID 0000.0001) // =======================================================
(PID.TID 0000.0001) // End MONITOR dynamic field statistics
(PID.TID 0000.0001) // =======================================================
 cg2d: Sum(rhs),rhsMax =   1.06581410364015E-14  9.57185490780752E+01
(PID.TID 0000.0001)                    cg2d_init_res =    2.93838379475324E-03
(PID.TID 0000.0001)                       cg2d_iters =     4
(PID.TID 0000.0001)                         cg2d_res =    4.00774428247482E-15
 cg3d: Sum(rhs),rhsMax =  -6.09246893752862E+01  1.70844094848910E-05
(PID.TID 0000.0001)                    cg3d_init_res =    2.44926003197131E+04
(PID.TID 0000.0001)                       cg3d_iters =   200
(PID.TID 0000.0001)                         cg3d_res =    2.68463749571246E-08
(PID.TID 0000.0001) // =======================================================
(PID.TID 0000.0001) // Begin MONITOR dynamic field statistics
(PID.TID 0000.0001) // =======================================================
(PID.TID 0000.0001) %MON time_tsnumber                =                     8
(PID.TID 0000.0001) %MON time_secondsf                =   4.0000000000000E-02
(PID.TID 0000.0001) %MON dynstat_eta_max              =   1.4955099510463E-01
(PID.TID 0000.0001) %MON dynstat_eta_min              =  -1.4955099417904E-01
(PID.TID 0000.0001) %MON dynstat_eta_mean             =  -3.4694469519536E-17
(PID.TID 0000.0001) %MON dynstat_eta_sd               =   1.0580072871725E-01
(PID.TID 0000.0001) %MON dynstat_eta_del2             =   5.6641279402899E-05
(PID.TID 0000.0001) %MON dynstat_uvel_max             =   1.8241632941012E-02
(PID.TID 0000.0001) %MON dynstat_uvel_min             =   1.0210546293434E-04
(PID.TID 0000.0001) %MON dynstat_uvel_mean            =   3.8766601351996E-03
(PID.TID 0000.0001) %MON dynstat_uvel_sd              =   3.7806838998423E-03
(PID.TID 0000.0001) %MON dynstat_uvel_del2            =   4.3168065201823E-07
(PID.TID 0000.0001) %MON dynstat_vvel_max             =   0.0000000000000E+00
(PID.TID 0000.0001) %MON dynstat_vvel_min             =   0.0000000000000E+00
(PID.TID 0000.0001) %MON dynstat_vvel_mean            =   0.0000000000000E+00
(PID.TID 0000.0001) %MON dynstat_vvel_sd              =   0.0000000000000E+00
(PID.TID 0000.0001) %MON dynstat_vvel_del2            =   0.0000000000000E+00
(PID.TID 0000.0001) %MON dynstat_wvel_max             =   1.8741819437196E-02
(PID.TID 0000.0001) %MON dynstat_wvel_min             =  -1.8741726401305E-02
(PID.TID 0000.0001) %MON dynstat_wvel_mean            =   1.7522459353301E-19
(PID.TID 0000.0001) %MON dynstat_wvel_sd              =   5.2676043913106E-03
(PID.TID 0000.0001) %MON dynstat_wvel_del2            =   4.0931749873288E-07
(PID.TID 0000.0001) %MON dynstat_theta_max            =   1.0000000000000E+01
(PID.TID 0000.0001) %MON dynstat_theta_min            =   1.0000000000000E+01
(PID.TID 0000.0001) %MON dynstat_theta_mean           =   9.9999999999999E+00
(PID.TID 0000.0001) %MON dynstat_theta_sd             =   1.4921397450962E-13
(PID.TID 0000.0001) %MON dynstat_theta_del2           =   0.0000000000000E+00
(PID.TID 0000.0001) %MON dynstat_salt_max             =   3.5000000000000E+01
(PID.TID 0000.0001) %MON dynstat_salt_min             =   3.5000000000000E+01
(PID.TID 0000.0001) %MON dynstat_salt_mean            =   3.5000000000000E+01
(PID.TID 0000.0001) %MON dynstat_salt_sd              =   9.9475983006414E-14
(PID.TID 0000.0001) %MON dynstat_salt_del2            =   0.0000000000000E+00
(PID.TID 0000.0001) %MON advcfl_uvel_max              =   4.5604082352531E-04
(PID.TID 0000.0001) %MON advcfl_vvel_max              =   0.0000000000000E+00
(PID.TID 0000.0001) %MON advcfl_wvel_max              =   9.3709097185982E-04
(PID.TID 0000.0001) %MON advcfl_W_hf_max              =   4.3990930774890E-04
(PID.TID 0000.0001) %MON pe_b_mean                    =   5.5968970985502E-03
(PID.TID 0000.0001) %MON ke_max                       =   1.6612746310823E-04
(PID.TID 0000.0001) %MON ke_mean                      =   2.7223898976124E-05
(PID.TID 0000.0001) %MON ke_vol                       =   2.0000000000000E+01
(PID.TID 0000.0001) // =======================================================
(PID.TID 0000.0001) // End MONITOR dynamic field statistics
(PID.TID 0000.0001) // =======================================================
 cg2d: Sum(rhs),rhsMax =   1.24344978758018E-14  9.56467511839887E+01
(PID.TID 0000.0001)                    cg2d_init_res =    3.75461840558940E-03
(PID.TID 0000.0001)                       cg2d_iters =     4
(PID.TID 0000.0001)                         cg2d_res =    5.12102961818469E-15
 cg3d: Sum(rhs),rhsMax =  -1.13369911053496E-01  1.18175040314511E-02
(PID.TID 0000.0001)                    cg3d_init_res =    3.53865041074088E+01
(PID.TID 0000.0001)                       cg3d_iters =   200
(PID.TID 0000.0001)                         cg3d_res =    4.40987138157619E-11
(PID.TID 0000.0001) // =======================================================
(PID.TID 0000.0001) // Begin MONITOR dynamic field statistics
(PID.TID 0000.0001) // =======================================================
(PID.TID 0000.0001) %MON time_tsnumber                =                     9
(PID.TID 0000.0001) %MON time_secondsf                =   4.5000000000000E-02
(PID.TID 0000.0001) %MON dynstat_eta_max              =   1.4945144139977E-01
(PID.TID 0000.0001) %MON dynstat_eta_min              =  -1.4945143990929E-01
(PID.TID 0000.0001) %MON dynstat_eta_mean             =  -5.2041704279304E-17
(PID.TID 0000.0001) %MON dynstat_eta_sd               =   1.0573029866467E-01
(PID.TID 0000.0001) %MON dynstat_eta_del2             =   5.6603574102207E-05
(PID.TID 0000.0001) %MON dynstat_uvel_max             =   2.0517289133325E-02
(PID.TID 0000.0001) %MON dynstat_uvel_min             =   1.1484318973849E-04
(PID.TID 0000.0001) %MON dynstat_uvel_mean            =   4.3602761597599E-03
(PID.TID 0000.0001) %MON dynstat_uvel_sd              =   4.2523268196213E-03
(PID.TID 0000.0001) %MON dynstat_uvel_del2            =   4.8553311089476E-07
(PID.TID 0000.0001) %MON dynstat_vvel_max             =   0.0000000000000E+00
(PID.TID 0000.0001) %MON dynstat_vvel_min             =   0.0000000000000E+00
(PID.TID 0000.0001) %MON dynstat_vvel_mean            =   0.0000000000000E+00
(PID.TID 0000.0001) %MON dynstat_vvel_sd              =   0.0000000000000E+00
(PID.TID 0000.0001) %MON dynstat_vvel_del2            =   0.0000000000000E+00
(PID.TID 0000.0001) %MON dynstat_wvel_max             =   2.1079888462014E-02
(PID.TID 0000.0001) %MON dynstat_wvel_min             =  -2.1079755542260E-02
(PID.TID 0000.0001) %MON dynstat_wvel_mean            =  -1.7522459353301E-18
(PID.TID 0000.0001) %MON dynstat_wvel_sd              =   5.9247416738994E-03
(PID.TID 0000.0001) %MON dynstat_wvel_del2            =   4.6038013915432E-07
(PID.TID 0000.0001) %MON dynstat_theta_max            =   1.0000000000000E+01
(PID.TID 0000.0001) %MON dynstat_theta_min            =   1.0000000000000E+01
(PID.TID 0000.0001) %MON dynstat_theta_mean           =   9.9999999999999E+00
(PID.TID 0000.0001) %MON dynstat_theta_sd             =   1.4921397450962E-13
(PID.TID 0000.0001) %MON dynstat_theta_del2           =   0.0000000000000E+00
(PID.TID 0000.0001) %MON dynstat_salt_max             =   3.5000000000000E+01
(PID.TID 0000.0001) %MON dynstat_salt_min             =   3.5000000000000E+01
(PID.TID 0000.0001) %MON dynstat_salt_mean            =   3.5000000000000E+01
(PID.TID 0000.0001) %MON dynstat_salt_sd              =   9.9475983006414E-14
(PID.TID 0000.0001) %MON dynstat_salt_del2            =   0.0000000000000E+00
(PID.TID 0000.0001) %MON advcfl_uvel_max              =   5.1293222833312E-04
(PID.TID 0000.0001) %MON advcfl_vvel_max              =   0.0000000000000E+00
(PID.TID 0000.0001) %MON advcfl_wvel_max              =   1.0539944231007E-03
(PID.TID 0000.0001) %MON advcfl_W_hf_max              =   4.9478830457436E-04
(PID.TID 0000.0001) %MON pe_b_mean                    =   5.5894480278604E-03
(PID.TID 0000.0001) %MON ke_max                       =   2.1016203156873E-04
(PID.TID 0000.0001) %MON ke_mean                      =   3.4439977625522E-05
(PID.TID 0000.0001) %MON ke_vol                       =   2.0000000000000E+01
(PID.TID 0000.0001) // =======================================================
(PID.TID 0000.0001) // End MONITOR dynamic field statistics
(PID.TID 0000.0001) // =======================================================
 cg2d: Sum(rhs),rhsMax =   1.24344978758018E-14  9.55836386557262E+01
(PID.TID 0000.0001)                    cg2d_init_res =    3.72539772752018E-03
(PID.TID 0000.0001)                       cg2d_iters =     4
(PID.TID 0000.0001)                         cg2d_res =    5.08117470941659E-15
 cg3d: Sum(rhs),rhsMax =  -6.11888041407833E+01  2.67059070887567E-05
(PID.TID 0000.0001)                    cg3d_init_res =    1.56697253856750E+04
(PID.TID 0000.0001)                       cg3d_iters =   200
(PID.TID 0000.0001)                         cg3d_res =    1.93950894303375E-08
(PID.TID 0000.0001) // =======================================================
(PID.TID 0000.0001) // Begin MONITOR dynamic field statistics
(PID.TID 0000.0001) // =======================================================
(PID.TID 0000.0001) %MON time_tsnumber                =                    10
(PID.TID 0000.0001) %MON time_secondsf                =   5.0000000000000E-02
(PID.TID 0000.0001) %MON dynstat_eta_max              =   1.4934020168241E-01
(PID.TID 0000.0001) %MON dynstat_eta_min              =  -1.4934019940281E-01
(PID.TID 0000.0001) %MON dynstat_eta_mean             =  -3.9031278209478E-17
(PID.TID 0000.0001) %MON dynstat_eta_sd               =   1.0565160119460E-01
(PID.TID 0000.0001) %MON dynstat_eta_del2             =   5.6561442772387E-05
(PID.TID 0000.0001) %MON dynstat_uvel_max             =   2.2791340973985E-02
(PID.TID 0000.0001) %MON dynstat_uvel_min             =   1.2757193650073E-04
(PID.TID 0000.0001) %MON dynstat_uvel_mean            =   4.8435512379550E-03
(PID.TID 0000.0001) %MON dynstat_uvel_sd              =   4.7236372326805E-03
(PID.TID 0000.0001) %MON dynstat_uvel_del2            =   5.3934760410976E-07
(PID.TID 0000.0001) %MON dynstat_vvel_max             =   0.0000000000000E+00
(PID.TID 0000.0001) %MON dynstat_vvel_min             =   0.0000000000000E+00
(PID.TID 0000.0001) %MON dynstat_vvel_mean            =   0.0000000000000E+00
(PID.TID 0000.0001) %MON dynstat_vvel_sd              =   0.0000000000000E+00
(PID.TID 0000.0001) %MON dynstat_vvel_del2            =   0.0000000000000E+00
(PID.TID 0000.0001) %MON dynstat_wvel_max             =   2.3416314133273E-02
(PID.TID 0000.0001) %MON dynstat_wvel_min             =  -2.3416131402506E-02
(PID.TID 0000.0001) %MON dynstat_wvel_mean            =  -3.5044918706602E-18
(PID.TID 0000.0001) %MON dynstat_wvel_sd              =   6.5814156801685E-03
(PID.TID 0000.0001) %MON dynstat_wvel_del2            =   5.1140678084917E-07
(PID.TID 0000.0001) %MON dynstat_theta_max            =   1.0000000000000E+01
(PID.TID 0000.0001) %MON dynstat_theta_min            =   1.0000000000000E+01
(PID.TID 0000.0001) %MON dynstat_theta_mean           =   9.9999999999999E+00
(PID.TID 0000.0001) %MON dynstat_theta_sd             =   1.4921397450962E-13
(PID.TID 0000.0001) %MON dynstat_theta_del2           =   0.0000000000000E+00
(PID.TID 0000.0001) %MON dynstat_salt_max             =   3.5000000000000E+01
(PID.TID 0000.0001) %MON dynstat_salt_min             =   3.5000000000000E+01
(PID.TID 0000.0001) %MON dynstat_salt_mean            =   3.5000000000000E+01
(PID.TID 0000.0001) %MON dynstat_salt_sd              =   9.9475983006414E-14
(PID.TID 0000.0001) %MON dynstat_salt_del2            =   0.0000000000000E+00
(PID.TID 0000.0001) %MON advcfl_uvel_max              =   5.6978352434961E-04
(PID.TID 0000.0001) %MON advcfl_vvel_max              =   0.0000000000000E+00
(PID.TID 0000.0001) %MON advcfl_wvel_max              =   1.1708157066637E-03
(PID.TID 0000.0001) %MON advcfl_W_hf_max              =   5.4962861449939E-04
(PID.TID 0000.0001) %MON pe_b_mean                    =   5.5811304174915E-03
(PID.TID 0000.0001) %MON ke_max                       =   2.5933097013013E-04
(PID.TID 0000.0001) %MON ke_mean                      =   4.2497429750713E-05
(PID.TID 0000.0001) %MON ke_vol                       =   2.0000000000000E+01
(PID.TID 0000.0001) // =======================================================
(PID.TID 0000.0001) // End MONITOR dynamic field statistics
(PID.TID 0000.0001) // =======================================================
 cg2d: Sum(rhs),rhsMax =   1.95399252334028E-14  9.54968879575826E+01
(PID.TID 0000.0001)                    cg2d_init_res =    4.54350266297148E-03
(PID.TID 0000.0001)                       cg2d_iters =     4
(PID.TID 0000.0001)                         cg2d_res =    6.19701102961145E-15
 cg3d: Sum(rhs),rhsMax =  -1.69204073901597E-01  1.18097094433203E-02
(PID.TID 0000.0001)                    cg3d_init_res =    3.54070998148781E+01
(PID.TID 0000.0001)                       cg3d_iters =   200
(PID.TID 0000.0001)                         cg3d_res =    4.73306152385315E-11
(PID.TID 0000.0001) // =======================================================
(PID.TID 0000.0001) // Begin MONITOR dynamic field statistics
(PID.TID 0000.0001) // =======================================================
(PID.TID 0000.0001) %MON time_tsnumber                =                    11
(PID.TID 0000.0001) %MON time_secondsf                =   5.5000000000000E-02
(PID.TID 0000.0001) %MON dynstat_eta_max              =   1.4921728467705E-01
(PID.TID 0000.0001) %MON dynstat_eta_min              =  -1.4921728133173E-01
(PID.TID 0000.0001) %MON dynstat_eta_mean             =  -3.4694469519536E-17
(PID.TID 0000.0001) %MON dynstat_eta_sd               =   1.0556464246068E-01
(PID.TID 0000.0001) %MON dynstat_eta_del2             =   5.6514888707833E-05
(PID.TID 0000.0001) %MON dynstat_uvel_max             =   2.5063610641220E-02
(PID.TID 0000.0001) %MON dynstat_uvel_min             =   1.4029070791104E-04
(PID.TID 0000.0001) %MON dynstat_uvel_mean            =   5.3264475804370E-03
(PID.TID 0000.0001) %MON dynstat_uvel_sd              =   5.1945782849074E-03
(PID.TID 0000.0001) %MON dynstat_uvel_del2            =   5.9311992368458E-07
(PID.TID 0000.0001) %MON dynstat_vvel_max             =   0.0000000000000E+00
(PID.TID 0000.0001) %MON dynstat_vvel_min             =   0.0000000000000E+00
(PID.TID 0000.0001) %MON dynstat_vvel_mean            =   0.0000000000000E+00
(PID.TID 0000.0001) %MON dynstat_vvel_sd              =   0.0000000000000E+00
(PID.TID 0000.0001) %MON dynstat_vvel_del2            =   0.0000000000000E+00
(PID.TID 0000.0001) %MON dynstat_wvel_max             =   2.5750914298573E-02
(PID.TID 0000.0001) %MON dynstat_wvel_min             =  -2.5750670743079E-02
(PID.TID 0000.0001) %MON dynstat_wvel_mean            =  -1.4017967482641E-18
(PID.TID 0000.0001) %MON dynstat_wvel_sd              =   7.2375750624042E-03
(PID.TID 0000.0001) %MON dynstat_wvel_del2            =   5.6239343386950E-07
(PID.TID 0000.0001) %MON dynstat_theta_max            =   1.0000000000000E+01
(PID.TID 0000.0001) %MON dynstat_theta_min            =   1.0000000000000E+01
(PID.TID 0000.0001) %MON dynstat_theta_mean           =   9.9999999999999E+00
(PID.TID 0000.0001) %MON dynstat_theta_sd             =   1.4921397450962E-13
(PID.TID 0000.0001) %MON dynstat_theta_del2           =   0.0000000000000E+00
(PID.TID 0000.0001) %MON dynstat_salt_max             =   3.5000000000000E+01
(PID.TID 0000.0001) %MON dynstat_salt_min             =   3.5000000000000E+01
(PID.TID 0000.0001) %MON dynstat_salt_mean            =   3.5000000000000E+01
(PID.TID 0000.0001) %MON dynstat_salt_sd              =   9.9475983006414E-14
(PID.TID 0000.0001) %MON dynstat_salt_del2            =   0.0000000000000E+00
(PID.TID 0000.0001) %MON advcfl_uvel_max              =   6.2659026603051E-04
(PID.TID 0000.0001) %MON advcfl_vvel_max              =   0.0000000000000E+00
(PID.TID 0000.0001) %MON advcfl_wvel_max              =   1.2875457149287E-03
(PID.TID 0000.0001) %MON advcfl_W_hf_max              =   6.0442594952055E-04
(PID.TID 0000.0001) %MON pe_b_mean                    =   5.5719468689257E-03
(PID.TID 0000.0001) %MON ke_max                       =   3.1361892323632E-04
(PID.TID 0000.0001) %MON ke_mean                      =   5.1393735228732E-05
(PID.TID 0000.0001) %MON ke_vol                       =   2.0000000000000E+01
(PID.TID 0000.0001) // =======================================================
(PID.TID 0000.0001) // End MONITOR dynamic field statistics
(PID.TID 0000.0001) // =======================================================
 cg2d: Sum(rhs),rhsMax =   1.42108547152020E-14  9.54188343789860E+01
(PID.TID 0000.0001)                    cg2d_init_res =    4.51481737393351E-03
(PID.TID 0000.0001)                       cg2d_iters =     4
(PID.TID 0000.0001)                         cg2d_res =    6.15788634773565E-15
 cg3d: Sum(rhs),rhsMax =  -6.13067016655485E+01  3.84567991866015E-05
(PID.TID 0000.0001)                    cg3d_init_res =    1.08825177225057E+04
(PID.TID 0000.0001)                       cg3d_iters =   200
(PID.TID 0000.0001)                         cg3d_res =    1.44782223791259E-08
(PID.TID 0000.0001) // =======================================================
(PID.TID 0000.0001) // Begin MONITOR dynamic field statistics
(PID.TID 0000.0001) // =======================================================
(PID.TID 0000.0001) %MON time_tsnumber                =                    12
(PID.TID 0000.0001) %MON time_secondsf                =   6.0000000000000E-02
(PID.TID 0000.0001) %MON dynstat_eta_max              =   1.4908270002402E-01
(PID.TID 0000.0001) %MON dynstat_eta_min              =  -1.4908269527862E-01
(PID.TID 0000.0001) %MON dynstat_eta_mean             =  -3.0357660829594E-17
(PID.TID 0000.0001) %MON dynstat_eta_sd               =   1.0546942926255E-01
(PID.TID 0000.0001) %MON dynstat_eta_del2             =   5.6463915548764E-05
(PID.TID 0000.0001) %MON dynstat_uvel_max             =   2.7333920451337E-02
(PID.TID 0000.0001) %MON dynstat_uvel_min             =   1.5299850943897E-04
(PID.TID 0000.0001) %MON dynstat_uvel_mean            =   5.8089274273850E-03
(PID.TID 0000.0001) %MON dynstat_uvel_sd              =   5.6651131509118E-03
(PID.TID 0000.0001) %MON dynstat_uvel_del2            =   6.4684586493005E-07
(PID.TID 0000.0001) %MON dynstat_vvel_max             =   0.0000000000000E+00
(PID.TID 0000.0001) %MON dynstat_vvel_min             =   0.0000000000000E+00
(PID.TID 0000.0001) %MON dynstat_vvel_mean            =   0.0000000000000E+00
(PID.TID 0000.0001) %MON dynstat_vvel_sd              =   0.0000000000000E+00
(PID.TID 0000.0001) %MON dynstat_vvel_del2            =   0.0000000000000E+00
(PID.TID 0000.0001) %MON dynstat_wvel_max             =   2.8083506945124E-02
(PID.TID 0000.0001) %MON dynstat_wvel_min             =  -2.8083190469801E-02
(PID.TID 0000.0001) %MON dynstat_wvel_mean            =   1.7522459353301E-18
(PID.TID 0000.0001) %MON dynstat_wvel_sd              =   7.8931685131105E-03
(PID.TID 0000.0001) %MON dynstat_wvel_del2            =   6.1333611138493E-07
(PID.TID 0000.0001) %MON dynstat_theta_max            =   1.0000000000000E+01
(PID.TID 0000.0001) %MON dynstat_theta_min            =   1.0000000000000E+01
(PID.TID 0000.0001) %MON dynstat_theta_mean           =   9.9999999999999E+00
(PID.TID 0000.0001) %MON dynstat_theta_sd             =   1.4921397450962E-13
(PID.TID 0000.0001) %MON dynstat_theta_del2           =   0.0000000000000E+00
(PID.TID 0000.0001) %MON dynstat_salt_max             =   3.5000000000000E+01
(PID.TID 0000.0001) %MON dynstat_salt_min             =   3.5000000000000E+01
(PID.TID 0000.0001) %MON dynstat_salt_mean            =   3.5000000000000E+01
(PID.TID 0000.0001) %MON dynstat_salt_sd              =   9.9475983006414E-14
(PID.TID 0000.0001) %MON dynstat_salt_del2            =   0.0000000000000E+00
(PID.TID 0000.0001) %MON advcfl_uvel_max              =   6.8334801128343E-04
(PID.TID 0000.0001) %MON advcfl_vvel_max              =   0.0000000000000E+00
(PID.TID 0000.0001) %MON advcfl_wvel_max              =   1.4041753472562E-03
(PID.TID 0000.0001) %MON advcfl_W_hf_max              =   6.5917602496152E-04
(PID.TID 0000.0001) %MON pe_b_mean                    =   5.5619002544836E-03
(PID.TID 0000.0001) %MON ke_max                       =   3.7300893658221E-04
(PID.TID 0000.0001) %MON ke_mean                      =   6.1126111566584E-05
(PID.TID 0000.0001) %MON ke_vol                       =   2.0000000000000E+01
(PID.TID 0000.0001) // =======================================================
(PID.TID 0000.0001) // End MONITOR dynamic field statistics
(PID.TID 0000.0001) // =======================================================
(PID.TID 0000.0001) DIAGSTATS_CLOSE_IO: close file: dynStDiag.0000000000.txt , unit=     9
(PID.TID 0000.0001) %CHECKPOINT        12 ckptA
(PID.TID 0000.0001)   Seconds in section "ALL                    [THE_MODEL_MAIN]":
(PID.TID 0000.0001)           User time:  10.9473355
(PID.TID 0000.0001)         System time:  0.0909859987
(PID.TID 0000.0001)     Wall clock time:  11.08109
(PID.TID 0000.0001)          No. starts: 1
(PID.TID 0000.0001)           No. stops: 1
(PID.TID 0000.0001)   Seconds in section "INITIALISE_FIXED       [THE_MODEL_MAIN]":
(PID.TID 0000.0001)           User time:  0.0889870005
(PID.TID 0000.0001)         System time:  0.0289959984
(PID.TID 0000.0001)     Wall clock time:  0.149463892
(PID.TID 0000.0001)          No. starts: 1
(PID.TID 0000.0001)           No. stops: 1
(PID.TID 0000.0001)   Seconds in section "THE_MAIN_LOOP          [THE_MODEL_MAIN]":
(PID.TID 0000.0001)           User time:  10.8583485
(PID.TID 0000.0001)         System time:  0.0619900003
(PID.TID 0000.0001)     Wall clock time:  10.931468
(PID.TID 0000.0001)          No. starts: 1
(PID.TID 0000.0001)           No. stops: 1
(PID.TID 0000.0001)   Seconds in section "INITIALISE_VARIA    [THE_MAIN_LOOP]":
(PID.TID 0000.0001)           User time:  0.0449929982
(PID.TID 0000.0001)         System time:  0.0199970007
(PID.TID 0000.0001)     Wall clock time:  0.0646288395
(PID.TID 0000.0001)          No. starts: 1
(PID.TID 0000.0001)           No. stops: 1
(PID.TID 0000.0001)   Seconds in section "MAIN LOOP           [THE_MAIN_LOOP]":
(PID.TID 0000.0001)           User time:  10.8133556
(PID.TID 0000.0001)         System time:  0.0419929996
(PID.TID 0000.0001)     Wall clock time:  10.8667171
(PID.TID 0000.0001)          No. starts: 1
(PID.TID 0000.0001)           No. stops: 1
(PID.TID 0000.0001)   Seconds in section "FORWARD_STEP        [THE_MAIN_LOOP]":
(PID.TID 0000.0001)           User time:  10.8133556
(PID.TID 0000.0001)         System time:  0.0419929996
(PID.TID 0000.0001)     Wall clock time:  10.8661602
(PID.TID 0000.0001)          No. starts: 12
(PID.TID 0000.0001)           No. stops: 12
(PID.TID 0000.0001)   Seconds in section "DO_STATEVARS_DIAGS  [FORWARD_STEP]":
(PID.TID 0000.0001)           User time:  0.00199992955
(PID.TID 0000.0001)         System time:  0.
(PID.TID 0000.0001)     Wall clock time:  0.00203967094
(PID.TID 0000.0001)          No. starts: 24
(PID.TID 0000.0001)           No. stops: 24
(PID.TID 0000.0001)   Seconds in section "LOAD_FIELDS_DRIVER  [FORWARD_STEP]":
(PID.TID 0000.0001)           User time:  0.00299906731
(PID.TID 0000.0001)         System time:  0.
(PID.TID 0000.0001)     Wall clock time:  0.00151371956
(PID.TID 0000.0001)          No. starts: 12
(PID.TID 0000.0001)           No. stops: 12
(PID.TID 0000.0001)   Seconds in section "EXTERNAL_FLDS_LOAD [LOAD_FLDS_DRIVER]":
(PID.TID 0000.0001)           User time:  0.000999927521
(PID.TID 0000.0001)         System time:  0.
(PID.TID 0000.0001)     Wall clock time:  0.000505208969
(PID.TID 0000.0001)          No. starts: 12
(PID.TID 0000.0001)           No. stops: 12
(PID.TID 0000.0001)   Seconds in section "DO_ATMOSPHERIC_PHYS [FORWARD_STEP]":
(PID.TID 0000.0001)           User time:  0.
(PID.TID 0000.0001)         System time:  0.00100000203
(PID.TID 0000.0001)     Wall clock time:  0.000500917435
(PID.TID 0000.0001)          No. starts: 12
(PID.TID 0000.0001)           No. stops: 12
(PID.TID 0000.0001)   Seconds in section "DO_OCEANIC_PHYS     [FORWARD_STEP]":
(PID.TID 0000.0001)           User time:  0.0159987062
(PID.TID 0000.0001)         System time:  0.
(PID.TID 0000.0001)     Wall clock time:  0.0176391602
(PID.TID 0000.0001)          No. starts: 12
(PID.TID 0000.0001)           No. stops: 12
(PID.TID 0000.0001)   Seconds in section "THERMODYNAMICS      [FORWARD_STEP]":
(PID.TID 0000.0001)           User time:  0.0839880556
(PID.TID 0000.0001)         System time:  0.
(PID.TID 0000.0001)     Wall clock time:  0.0833008289
(PID.TID 0000.0001)          No. starts: 12
(PID.TID 0000.0001)           No. stops: 12
(PID.TID 0000.0001)   Seconds in section "DYNAMICS            [FORWARD_STEP]":
(PID.TID 0000.0001)           User time:  0.805877894
(PID.TID 0000.0001)         System time:  0.00299999863
(PID.TID 0000.0001)     Wall clock time:  0.811045885
(PID.TID 0000.0001)          No. starts: 12
(PID.TID 0000.0001)           No. stops: 12
(PID.TID 0000.0001)   Seconds in section "CALC_GW          [DYNAMICS]":
(PID.TID 0000.0001)           User time:  0.151976526
(PID.TID 0000.0001)         System time:  0.000999994576
(PID.TID 0000.0001)     Wall clock time:  0.152130842
(PID.TID 0000.0001)          No. starts: 48
(PID.TID 0000.0001)           No. stops: 48
(PID.TID 0000.0001)   Seconds in section "SOLVE_FOR_PRESSURE  [FORWARD_STEP]":
(PID.TID 0000.0001)           User time:  9.61053863
(PID.TID 0000.0001)         System time:  0.0109979995
(PID.TID 0000.0001)     Wall clock time:  9.63158059
(PID.TID 0000.0001)          No. starts: 12
(PID.TID 0000.0001)           No. stops: 12
(PID.TID 0000.0001)   Seconds in section "CG3D   [SOLVE_FOR_PRESSURE]":
(PID.TID 0000.0001)           User time:  9.57554184
(PID.TID 0000.0001)         System time:  0.0109979995
(PID.TID 0000.0001)     Wall clock time:  9.59672451
(PID.TID 0000.0001)          No. starts: 12
(PID.TID 0000.0001)           No. stops: 12
(PID.TID 0000.0001)   Seconds in section "MOM_CORRECTION_STEP [FORWARD_STEP]":
(PID.TID 0000.0001)           User time:  0.0559914708
(PID.TID 0000.0001)         System time:  0.
(PID.TID 0000.0001)     Wall clock time:  0.0574207306
(PID.TID 0000.0001)          No. starts: 12
(PID.TID 0000.0001)           No. stops: 12
(PID.TID 0000.0001)   Seconds in section "UPDATE_ETAH         [FORWARD_STEP]":
(PID.TID 0000.0001)           User time:  0.
(PID.TID 0000.0001)         System time:  0.
(PID.TID 0000.0001)     Wall clock time:  0.0010368824
(PID.TID 0000.0001)          No. starts: 12
(PID.TID 0000.0001)           No. stops: 12
(PID.TID 0000.0001)   Seconds in section "TRC_CORRECTION_STEP [FORWARD_STEP]":
(PID.TID 0000.0001)           User time:  0.
(PID.TID 0000.0001)         System time:  0.
(PID.TID 0000.0001)     Wall clock time:  0.000477790833
(PID.TID 0000.0001)          No. starts: 12
(PID.TID 0000.0001)           No. stops: 12
(PID.TID 0000.0001)   Seconds in section "BLOCKING_EXCHANGES  [FORWARD_STEP]":
(PID.TID 0000.0001)           User time:  0.09698838
(PID.TID 0000.0001)         System time:  0.
(PID.TID 0000.0001)     Wall clock time:  0.0998380184
(PID.TID 0000.0001)          No. starts: 12
(PID.TID 0000.0001)           No. stops: 12
(PID.TID 0000.0001)   Seconds in section "MONITOR             [FORWARD_STEP]":
(PID.TID 0000.0001)           User time:  0.10498333
(PID.TID 0000.0001)         System time:  0.000999998301
(PID.TID 0000.0001)     Wall clock time:  0.104469776
(PID.TID 0000.0001)          No. starts: 12
(PID.TID 0000.0001)           No. stops: 12
(PID.TID 0000.0001)   Seconds in section "DO_THE_MODEL_IO     [FORWARD_STEP]":
(PID.TID 0000.0001)           User time:  0.00899803638
(PID.TID 0000.0001)         System time:  0.0199970007
(PID.TID 0000.0001)     Wall clock time:  0.0292780399
(PID.TID 0000.0001)          No. starts: 12
(PID.TID 0000.0001)           No. stops: 12
(PID.TID 0000.0001)   Seconds in section "DO_WRITE_PICKUP     [FORWARD_STEP]":
(PID.TID 0000.0001)           User time:  0.0149974823
(PID.TID 0000.0001)         System time:  0.00299900025
(PID.TID 0000.0001)     Wall clock time:  0.0178797245
(PID.TID 0000.0001)          No. starts: 12
(PID.TID 0000.0001)           No. stops: 12
(PID.TID 0000.0001) // ======================================================
(PID.TID 0000.0001) // Tile <-> Tile communication statistics
(PID.TID 0000.0001) // ======================================================
(PID.TID 0000.0001) // o Tile number: 000001
(PID.TID 0000.0001) //         No. X exchanges =              0
(PID.TID 0000.0001) //            Max. X spins =              0
(PID.TID 0000.0001) //            Min. X spins =     1000000000
(PID.TID 0000.0001) //          Total. X spins =              0
(PID.TID 0000.0001) //            Avg. X spins =       0.00E+00
(PID.TID 0000.0001) //         No. Y exchanges =              0
(PID.TID 0000.0001) //            Max. Y spins =              0
(PID.TID 0000.0001) //            Min. Y spins =     1000000000
(PID.TID 0000.0001) //          Total. Y spins =              0
(PID.TID 0000.0001) //            Avg. Y spins =       0.00E+00
(PID.TID 0000.0001) // o Tile number: 000002
(PID.TID 0000.0001) //         No. X exchanges =              0
(PID.TID 0000.0001) //            Max. X spins =              0
(PID.TID 0000.0001) //            Min. X spins =     1000000000
(PID.TID 0000.0001) //          Total. X spins =              0
(PID.TID 0000.0001) //            Avg. X spins =       0.00E+00
(PID.TID 0000.0001) //         No. Y exchanges =              0
(PID.TID 0000.0001) //            Max. Y spins =              0
(PID.TID 0000.0001) //            Min. Y spins =     1000000000
(PID.TID 0000.0001) //          Total. Y spins =              0
(PID.TID 0000.0001) //            Avg. Y spins =       0.00E+00
(PID.TID 0000.0001) // o Tile number: 000003
(PID.TID 0000.0001) //         No. X exchanges =              0
(PID.TID 0000.0001) //            Max. X spins =              0
(PID.TID 0000.0001) //            Min. X spins =     1000000000
(PID.TID 0000.0001) //          Total. X spins =              0
(PID.TID 0000.0001) //            Avg. X spins =       0.00E+00
(PID.TID 0000.0001) //         No. Y exchanges =              0
(PID.TID 0000.0001) //            Max. Y spins =              0
(PID.TID 0000.0001) //            Min. Y spins =     1000000000
(PID.TID 0000.0001) //          Total. Y spins =              0
(PID.TID 0000.0001) //            Avg. Y spins =       0.00E+00
(PID.TID 0000.0001) // o Tile number: 000004
(PID.TID 0000.0001) //         No. X exchanges =              0
(PID.TID 0000.0001) //            Max. X spins =              0
(PID.TID 0000.0001) //            Min. X spins =     1000000000
(PID.TID 0000.0001) //          Total. X spins =              0
(PID.TID 0000.0001) //            Avg. X spins =       0.00E+00
(PID.TID 0000.0001) //         No. Y exchanges =              0
(PID.TID 0000.0001) //            Max. Y spins =              0
(PID.TID 0000.0001) //            Min. Y spins =     1000000000
(PID.TID 0000.0001) //          Total. Y spins =              0
(PID.TID 0000.0001) //            Avg. Y spins =       0.00E+00
(PID.TID 0000.0001) // o Thread number: 000001
(PID.TID 0000.0001) //            No. barriers =          17210
(PID.TID 0000.0001) //      Max. barrier spins =              1
(PID.TID 0000.0001) //      Min. barrier spins =              1
(PID.TID 0000.0001) //     Total barrier spins =          17210
(PID.TID 0000.0001) //      Avg. barrier spins =       1.00E+00
