(PID.TID 0000.0001) 
(PID.TID 0000.0001) // ======================================================
(PID.TID 0000.0001) //                      MITgcm UV
(PID.TID 0000.0001) //                      =========
(PID.TID 0000.0001) // ======================================================
(PID.TID 0000.0001) // execution environment starting up...
(PID.TID 0000.0001) 
(PID.TID 0000.0001) // MITgcmUV version:  checkpoint57s_post
(PID.TID 0000.0001) // Build user:        jmc
(PID.TID 0000.0001) // Build host:        faulks
(PID.TID 0000.0001) // Build date:        Sun Sep 25 20:19:51 EDT 2005
(PID.TID 0000.0001) 
(PID.TID 0000.0001) // =======================================================
(PID.TID 0000.0001) // Execution Environment parameter file "eedata"
(PID.TID 0000.0001) // =======================================================
(PID.TID 0000.0001) ># Example "eedata" file
(PID.TID 0000.0001) ># Lines beginning "#" are comments
(PID.TID 0000.0001) ># nTx - No. threads per process in X
(PID.TID 0000.0001) ># nTy - No. threads per process in Y
(PID.TID 0000.0001) > &EEPARMS
(PID.TID 0000.0001) > useCubedSphereExchange=.TRUE.,
(PID.TID 0000.0001) ># Activate one line below to support 2, 3 or 6 way multi-threading
(PID.TID 0000.0001) >#nTx=2,
(PID.TID 0000.0001) >#nTx=3,
(PID.TID 0000.0001) >#nTx=6,
(PID.TID 0000.0001) > &
(PID.TID 0000.0001) ># Note: Some systems use & as the
(PID.TID 0000.0001) ># namelist terminator. Other systems
(PID.TID 0000.0001) ># use a / character (as shown here).
(PID.TID 0000.0001) 
(PID.TID 0000.0001) // =======================================================
(PID.TID 0000.0001) // Computational Grid Specification ( see files "SIZE.h" )
(PID.TID 0000.0001) //                                  ( and "eedata"       )
(PID.TID 0000.0001) // =======================================================
(PID.TID 0000.0001)      nPx =    1 ; /* No. processes in X */
(PID.TID 0000.0001)      nPy =    1 ; /* No. processes in Y */
(PID.TID 0000.0001)      nSx =    6 ; /* No. tiles in X per process */
(PID.TID 0000.0001)      nSy =    1 ; /* No. tiles in Y per process */
(PID.TID 0000.0001)      sNx =   32 ; /* Tile size in X */
(PID.TID 0000.0001)      sNy =   32 ; /* Tile size in Y */
(PID.TID 0000.0001)      OLx =    2 ; /* Tile overlap distance in X */
(PID.TID 0000.0001)      OLy =    2 ; /* Tile overlap distance in Y */
(PID.TID 0000.0001)      nTx =    1 ; /* No. threads in X per process */
(PID.TID 0000.0001)      nTy =    1 ; /* No. threads in Y per process */
(PID.TID 0000.0001)       Nr =   20 ; /* No. levels in the vertical   */
(PID.TID 0000.0001)       nX =  192 ; /* Total domain size in X ( = nPx*nSx*sNx ) */
(PID.TID 0000.0001)       nY =   32 ; /* Total domain size in Y ( = nPy*nSy*sNy ) */
(PID.TID 0000.0001)   nTiles =    6 ; /* Total no. tiles per process ( = nSx*nSy ) */
(PID.TID 0000.0001)   nProcs =    1 ; /* Total no. processes ( = nPx*nPy ) */
(PID.TID 0000.0001) nThreads =    1 ; /* Total no. threads per process ( = nTx*nTy ) */
(PID.TID 0000.0001) usingMPI =    F ; /* Flag used to control whether MPI is in use */
(PID.TID 0000.0001)                   /*  note: To execute a program with MPI calls */
(PID.TID 0000.0001)                   /*  it must be launched appropriately e.g     */
(PID.TID 0000.0001)                   /*  "mpirun -np 64 ......"                    */
(PID.TID 0000.0001) useCoupler=   F ; /* Flag used to control communications with */
(PID.TID 0000.0001)                   /*  other model components, through a coupler */
(PID.TID 0000.0001) 
(PID.TID 0000.0001) // ======================================================
(PID.TID 0000.0001) // Mapping of tiles to threads
(PID.TID 0000.0001) // ======================================================
(PID.TID 0000.0001) // -o- Thread   1, tiles (   1:   6,   1:   1)
(PID.TID 0000.0001) 
(PID.TID 0000.0001) // ======================================================
(PID.TID 0000.0001) // Tile <-> Tile connectvity table
(PID.TID 0000.0001) // ======================================================
(PID.TID 0000.0001) // Tile number: 000001 (process no. = 000001)
(PID.TID 0000.0001) //        WEST: Tile = 000006, Process = 000001, Comm = put
(PID.TID 0000.0001) //                bi = 000006, bj = 000001
(PID.TID 0000.0001) //        EAST: Tile = 000002, Process = 000001, Comm = put
(PID.TID 0000.0001) //                bi = 000002, bj = 000001
(PID.TID 0000.0001) //       SOUTH: Tile = 000001, Process = 000001, Comm = put
(PID.TID 0000.0001) //                bi = 000001, bj = 000001
(PID.TID 0000.0001) //       NORTH: Tile = 000001, Process = 000001, Comm = put
(PID.TID 0000.0001) //                bi = 000001, bj = 000001
(PID.TID 0000.0001) // Tile number: 000002 (process no. = 000001)
(PID.TID 0000.0001) //        WEST: Tile = 000001, Process = 000001, Comm = put
(PID.TID 0000.0001) //                bi = 000001, bj = 000001
(PID.TID 0000.0001) //        EAST: Tile = 000003, Process = 000001, Comm = put
(PID.TID 0000.0001) //                bi = 000003, bj = 000001
(PID.TID 0000.0001) //       SOUTH: Tile = 000002, Process = 000001, Comm = put
(PID.TID 0000.0001) //                bi = 000002, bj = 000001
(PID.TID 0000.0001) //       NORTH: Tile = 000002, Process = 000001, Comm = put
(PID.TID 0000.0001) //                bi = 000002, bj = 000001
(PID.TID 0000.0001) // Tile number: 000003 (process no. = 000001)
(PID.TID 0000.0001) //        WEST: Tile = 000002, Process = 000001, Comm = put
(PID.TID 0000.0001) //                bi = 000002, bj = 000001
(PID.TID 0000.0001) //        EAST: Tile = 000004, Process = 000001, Comm = put
(PID.TID 0000.0001) //                bi = 000004, bj = 000001
(PID.TID 0000.0001) //       SOUTH: Tile = 000003, Process = 000001, Comm = put
(PID.TID 0000.0001) //                bi = 000003, bj = 000001
(PID.TID 0000.0001) //       NORTH: Tile = 000003, Process = 000001, Comm = put
(PID.TID 0000.0001) //                bi = 000003, bj = 000001
(PID.TID 0000.0001) // Tile number: 000004 (process no. = 000001)
(PID.TID 0000.0001) //        WEST: Tile = 000003, Process = 000001, Comm = put
(PID.TID 0000.0001) //                bi = 000003, bj = 000001
(PID.TID 0000.0001) //        EAST: Tile = 000005, Process = 000001, Comm = put
(PID.TID 0000.0001) //                bi = 000005, bj = 000001
(PID.TID 0000.0001) //       SOUTH: Tile = 000004, Process = 000001, Comm = put
(PID.TID 0000.0001) //                bi = 000004, bj = 000001
(PID.TID 0000.0001) //       NORTH: Tile = 000004, Process = 000001, Comm = put
(PID.TID 0000.0001) //                bi = 000004, bj = 000001
(PID.TID 0000.0001) // Tile number: 000005 (process no. = 000001)
(PID.TID 0000.0001) //        WEST: Tile = 000004, Process = 000001, Comm = put
(PID.TID 0000.0001) //                bi = 000004, bj = 000001
(PID.TID 0000.0001) //        EAST: Tile = 000006, Process = 000001, Comm = put
(PID.TID 0000.0001) //                bi = 000006, bj = 000001
(PID.TID 0000.0001) //       SOUTH: Tile = 000005, Process = 000001, Comm = put
(PID.TID 0000.0001) //                bi = 000005, bj = 000001
(PID.TID 0000.0001) //       NORTH: Tile = 000005, Process = 000001, Comm = put
(PID.TID 0000.0001) //                bi = 000005, bj = 000001
(PID.TID 0000.0001) // Tile number: 000006 (process no. = 000001)
(PID.TID 0000.0001) //        WEST: Tile = 000005, Process = 000001, Comm = put
(PID.TID 0000.0001) //                bi = 000005, bj = 000001
(PID.TID 0000.0001) //        EAST: Tile = 000001, Process = 000001, Comm = put
(PID.TID 0000.0001) //                bi = 000001, bj = 000001
(PID.TID 0000.0001) //       SOUTH: Tile = 000006, Process = 000001, Comm = put
(PID.TID 0000.0001) //                bi = 000006, bj = 000001
(PID.TID 0000.0001) //       NORTH: Tile = 000006, Process = 000001, Comm = put
(PID.TID 0000.0001) //                bi = 000006, bj = 000001
(PID.TID 0000.0001) 
(PID.TID 0000.0001) ===== W2 TILE TOPLOGY =====
(PID.TID 0000.0001)  TILE:    1
(PID.TID 0000.0001)       NEIGHBOUR    1 = TILE    3 Comm = PUT ( PROC =    1)
(PID.TID 0000.0001)       NEIGHBOUR    2 = TILE    6 Comm = PUT ( PROC =    1)
(PID.TID 0000.0001)       NEIGHBOUR    3 = TILE    2 Comm = PUT ( PROC =    1)
(PID.TID 0000.0001)       NEIGHBOUR    4 = TILE    5 Comm = PUT ( PROC =    1)
(PID.TID 0000.0001)  TILE:    2
(PID.TID 0000.0001)       NEIGHBOUR    1 = TILE    3 Comm = PUT ( PROC =    1)
(PID.TID 0000.0001)       NEIGHBOUR    2 = TILE    6 Comm = PUT ( PROC =    1)
(PID.TID 0000.0001)       NEIGHBOUR    3 = TILE    4 Comm = PUT ( PROC =    1)
(PID.TID 0000.0001)       NEIGHBOUR    4 = TILE    1 Comm = PUT ( PROC =    1)
(PID.TID 0000.0001)  TILE:    3
(PID.TID 0000.0001)       NEIGHBOUR    1 = TILE    5 Comm = PUT ( PROC =    1)
(PID.TID 0000.0001)       NEIGHBOUR    2 = TILE    2 Comm = PUT ( PROC =    1)
(PID.TID 0000.0001)       NEIGHBOUR    3 = TILE    4 Comm = PUT ( PROC =    1)
(PID.TID 0000.0001)       NEIGHBOUR    4 = TILE    1 Comm = PUT ( PROC =    1)
(PID.TID 0000.0001)  TILE:    4
(PID.TID 0000.0001)       NEIGHBOUR    1 = TILE    5 Comm = PUT ( PROC =    1)
(PID.TID 0000.0001)       NEIGHBOUR    2 = TILE    2 Comm = PUT ( PROC =    1)
(PID.TID 0000.0001)       NEIGHBOUR    3 = TILE    6 Comm = PUT ( PROC =    1)
(PID.TID 0000.0001)       NEIGHBOUR    4 = TILE    3 Comm = PUT ( PROC =    1)
(PID.TID 0000.0001)  TILE:    5
(PID.TID 0000.0001)       NEIGHBOUR    1 = TILE    1 Comm = PUT ( PROC =    1)
(PID.TID 0000.0001)       NEIGHBOUR    2 = TILE    4 Comm = PUT ( PROC =    1)
(PID.TID 0000.0001)       NEIGHBOUR    3 = TILE    6 Comm = PUT ( PROC =    1)
(PID.TID 0000.0001)       NEIGHBOUR    4 = TILE    3 Comm = PUT ( PROC =    1)
(PID.TID 0000.0001)  TILE:    6
(PID.TID 0000.0001)       NEIGHBOUR    1 = TILE    1 Comm = PUT ( PROC =    1)
(PID.TID 0000.0001)       NEIGHBOUR    2 = TILE    4 Comm = PUT ( PROC =    1)
(PID.TID 0000.0001)       NEIGHBOUR    3 = TILE    2 Comm = PUT ( PROC =    1)
(PID.TID 0000.0001)       NEIGHBOUR    4 = TILE    5 Comm = PUT ( PROC =    1)
(PID.TID 0000.0001) Tile    1(proc =   1) sends points i=  34:  -1, j=  31:  32
(PID.TID 0000.0001)                          to points i=  -1:   0, j=  -1:  34 in tile    3(proc =   1)
(PID.TID 0000.0001) Tile    1(proc =   1) sends points i=  -1:  34, j=   1:   2
(PID.TID 0000.0001)                          to points i=  -1:  34, j=  33:  34 in tile    6(proc =   1)
(PID.TID 0000.0001) Tile    1(proc =   1) sends points i=  31:  32, j=  -1:  34
(PID.TID 0000.0001)                          to points i=  -1:   0, j=  -1:  34 in tile    2(proc =   1)
(PID.TID 0000.0001) Tile    1(proc =   1) sends points i=   1:   2, j=  34:  -1
(PID.TID 0000.0001)                          to points i=  -1:  34, j=  33:  34 in tile    5(proc =   1)
(PID.TID 0000.0001) Tile    2(proc =   1) sends points i=  -1:  34, j=  31:  32
(PID.TID 0000.0001)                          to points i=  -1:  34, j=  -1:   0 in tile    3(proc =   1)
(PID.TID 0000.0001) Tile    2(proc =   1) sends points i=  34:  -1, j=   1:   2
(PID.TID 0000.0001)                          to points i=  33:  34, j=  -1:  34 in tile    6(proc =   1)
(PID.TID 0000.0001) Tile    2(proc =   1) sends points i=  31:  32, j=  34:  -1
(PID.TID 0000.0001)                          to points i=  -1:  34, j=  -1:   0 in tile    4(proc =   1)
(PID.TID 0000.0001) Tile    2(proc =   1) sends points i=   1:   2, j=  -1:  34
(PID.TID 0000.0001)                          to points i=  33:  34, j=  -1:  34 in tile    1(proc =   1)
(PID.TID 0000.0001) Tile    3(proc =   1) sends points i=  34:  -1, j=  31:  32
(PID.TID 0000.0001)                          to points i=  -1:   0, j=  -1:  34 in tile    5(proc =   1)
(PID.TID 0000.0001) Tile    3(proc =   1) sends points i=  -1:  34, j=   1:   2
(PID.TID 0000.0001)                          to points i=  -1:  34, j=  33:  34 in tile    2(proc =   1)
(PID.TID 0000.0001) Tile    3(proc =   1) sends points i=  31:  32, j=  -1:  34
(PID.TID 0000.0001)                          to points i=  -1:   0, j=  -1:  34 in tile    4(proc =   1)
(PID.TID 0000.0001) Tile    3(proc =   1) sends points i=   1:   2, j=  34:  -1
(PID.TID 0000.0001)                          to points i=  -1:  34, j=  33:  34 in tile    1(proc =   1)
(PID.TID 0000.0001) Tile    4(proc =   1) sends points i=  -1:  34, j=  31:  32
(PID.TID 0000.0001)                          to points i=  -1:  34, j=  -1:   0 in tile    5(proc =   1)
(PID.TID 0000.0001) Tile    4(proc =   1) sends points i=  34:  -1, j=   1:   2
(PID.TID 0000.0001)                          to points i=  33:  34, j=  -1:  34 in tile    2(proc =   1)
(PID.TID 0000.0001) Tile    4(proc =   1) sends points i=  31:  32, j=  34:  -1
(PID.TID 0000.0001)                          to points i=  -1:  34, j=  -1:   0 in tile    6(proc =   1)
(PID.TID 0000.0001) Tile    4(proc =   1) sends points i=   1:   2, j=  -1:  34
(PID.TID 0000.0001)                          to points i=  33:  34, j=  -1:  34 in tile    3(proc =   1)
(PID.TID 0000.0001) Tile    5(proc =   1) sends points i=  34:  -1, j=  31:  32
(PID.TID 0000.0001)                          to points i=  -1:   0, j=  -1:  34 in tile    1(proc =   1)
(PID.TID 0000.0001) Tile    5(proc =   1) sends points i=  -1:  34, j=   1:   2
(PID.TID 0000.0001)                          to points i=  -1:  34, j=  33:  34 in tile    4(proc =   1)
(PID.TID 0000.0001) Tile    5(proc =   1) sends points i=  31:  32, j=  -1:  34
(PID.TID 0000.0001)                          to points i=  -1:   0, j=  -1:  34 in tile    6(proc =   1)
(PID.TID 0000.0001) Tile    5(proc =   1) sends points i=   1:   2, j=  34:  -1
(PID.TID 0000.0001)                          to points i=  -1:  34, j=  33:  34 in tile    3(proc =   1)
(PID.TID 0000.0001) Tile    6(proc =   1) sends points i=  -1:  34, j=  31:  32
(PID.TID 0000.0001)                          to points i=  -1:  34, j=  -1:   0 in tile    1(proc =   1)
(PID.TID 0000.0001) Tile    6(proc =   1) sends points i=  34:  -1, j=   1:   2
(PID.TID 0000.0001)                          to points i=  33:  34, j=  -1:  34 in tile    4(proc =   1)
(PID.TID 0000.0001) Tile    6(proc =   1) sends points i=  31:  32, j=  34:  -1
(PID.TID 0000.0001)                          to points i=  -1:  34, j=  -1:   0 in tile    2(proc =   1)
(PID.TID 0000.0001) Tile    6(proc =   1) sends points i=   1:   2, j=  -1:  34
(PID.TID 0000.0001)                          to points i=  33:  34, j=  -1:  34 in tile    5(proc =   1)
(PID.TID 0000.0001) Tile    1(proc =   1)recv to points i=  -1:  34, j=  33:  34from tile   3(proc =   1)
(PID.TID 0000.0001) Tile    1(proc =   1)recv to points i=  -1:  34, j=  -1:   0from tile   6(proc =   1)
(PID.TID 0000.0001) Tile    1(proc =   1)recv to points i=  33:  34, j=  -1:  34from tile   2(proc =   1)
(PID.TID 0000.0001) Tile    1(proc =   1)recv to points i=  -1:   0, j=  -1:  34from tile   5(proc =   1)
(PID.TID 0000.0001) Tile    2(proc =   1)recv to points i=  -1:  34, j=  33:  34from tile   3(proc =   1)
(PID.TID 0000.0001) Tile    2(proc =   1)recv to points i=  -1:  34, j=  -1:   0from tile   6(proc =   1)
(PID.TID 0000.0001) Tile    2(proc =   1)recv to points i=  33:  34, j=  -1:  34from tile   4(proc =   1)
(PID.TID 0000.0001) Tile    2(proc =   1)recv to points i=  -1:   0, j=  -1:  34from tile   1(proc =   1)
(PID.TID 0000.0001) Tile    3(proc =   1)recv to points i=  -1:  34, j=  33:  34from tile   5(proc =   1)
(PID.TID 0000.0001) Tile    3(proc =   1)recv to points i=  -1:  34, j=  -1:   0from tile   2(proc =   1)
(PID.TID 0000.0001) Tile    3(proc =   1)recv to points i=  33:  34, j=  -1:  34from tile   4(proc =   1)
(PID.TID 0000.0001) Tile    3(proc =   1)recv to points i=  -1:   0, j=  -1:  34from tile   1(proc =   1)
(PID.TID 0000.0001) Tile    4(proc =   1)recv to points i=  -1:  34, j=  33:  34from tile   5(proc =   1)
(PID.TID 0000.0001) Tile    4(proc =   1)recv to points i=  -1:  34, j=  -1:   0from tile   2(proc =   1)
(PID.TID 0000.0001) Tile    4(proc =   1)recv to points i=  33:  34, j=  -1:  34from tile   6(proc =   1)
(PID.TID 0000.0001) Tile    4(proc =   1)recv to points i=  -1:   0, j=  -1:  34from tile   3(proc =   1)
(PID.TID 0000.0001) Tile    5(proc =   1)recv to points i=  -1:  34, j=  33:  34from tile   1(proc =   1)
(PID.TID 0000.0001) Tile    5(proc =   1)recv to points i=  -1:  34, j=  -1:   0from tile   4(proc =   1)
(PID.TID 0000.0001) Tile    5(proc =   1)recv to points i=  33:  34, j=  -1:  34from tile   6(proc =   1)
(PID.TID 0000.0001) Tile    5(proc =   1)recv to points i=  -1:   0, j=  -1:  34from tile   3(proc =   1)
(PID.TID 0000.0001) Tile    6(proc =   1)recv to points i=  -1:  34, j=  33:  34from tile   1(proc =   1)
(PID.TID 0000.0001) Tile    6(proc =   1)recv to points i=  -1:  34, j=  -1:   0from tile   4(proc =   1)
(PID.TID 0000.0001) Tile    6(proc =   1)recv to points i=  33:  34, j=  -1:  34from tile   2(proc =   1)
(PID.TID 0000.0001) Tile    6(proc =   1)recv to points i=  -1:   0, j=  -1:  34from tile   5(proc =   1)
(PID.TID 0000.0001) // =======================================================
(PID.TID 0000.0001) // Model parameter file "data"
(PID.TID 0000.0001) // =======================================================
(PID.TID 0000.0001) ># ====================
(PID.TID 0000.0001) ># | Model parameters |
(PID.TID 0000.0001) ># ====================
(PID.TID 0000.0001) >#
(PID.TID 0000.0001) ># Continuous equation parameters
(PID.TID 0000.0001) > &PARM01
(PID.TID 0000.0001) > tRef=295.2, 295.5, 295.9, 296.3, 296.7, 297.1, 297.6, 298.1, 298.7, 299.3,
(PID.TID 0000.0001) >      300.0, 300.7, 301.9, 304.1, 308.0, 315.1, 329.5, 362.3, 419.2, 573.8,
(PID.TID 0000.0001) > sRef=20*0.0,
(PID.TID 0000.0001) > no_slip_sides=.FALSE.,
(PID.TID 0000.0001) > no_slip_bottom=.FALSE.,
(PID.TID 0000.0001) > buoyancyRelation='ATMOSPHERIC',
(PID.TID 0000.0001) > eosType='IDEALGAS',
(PID.TID 0000.0001) > implicitFreeSurface=.TRUE.,
(PID.TID 0000.0001) > exactConserv=.TRUE.,
(PID.TID 0000.0001) > nonlinFreeSurf=4,
(PID.TID 0000.0001) > select_rStar=2,
(PID.TID 0000.0001) > hFacInf=0.2,
(PID.TID 0000.0001) > hFacSup=2.0,
(PID.TID 0000.0001) > uniformLin_PhiSurf=.FALSE.,
(PID.TID 0000.0001) >#hFacMin=0.2,
(PID.TID 0000.0001) > saltStepping=.FALSE.,
(PID.TID 0000.0001) > momViscosity=.FALSE.,
(PID.TID 0000.0001) > vectorInvariantMomentum=.TRUE.,
(PID.TID 0000.0001) > staggerTimeStep=.TRUE.,
(PID.TID 0000.0001) > readBinaryPrec=64,
(PID.TID 0000.0001) > writeBinaryPrec=64,
(PID.TID 0000.0001) > &
(PID.TID 0000.0001) >
(PID.TID 0000.0001) ># Elliptic solver parameters
(PID.TID 0000.0001) > &PARM02
(PID.TID 0000.0001) > cg2dMaxIters=200,
(PID.TID 0000.0001) >#cg2dTargetResidual=1.E-12,
(PID.TID 0000.0001) > cg2dTargetResWunit=1.E-17,
(PID.TID 0000.0001) > &
(PID.TID 0000.0001) >
(PID.TID 0000.0001) ># Time stepping parameters
(PID.TID 0000.0001) > &PARM03
(PID.TID 0000.0001) > deltaT=450.,
(PID.TID 0000.0001) >#nIter0=276480,
(PID.TID 0000.0001) > startTime=124416000.,
(PID.TID 0000.0001) >#- run for 1 year (192.iterations x 450.s = 1.day, 360*192=69120):
(PID.TID 0000.0001) >#nTimeSteps=69120,
(PID.TID 0000.0001) > forcing_In_AB=.FALSE.,
(PID.TID 0000.0001) > abEps=0.1,
(PID.TID 0000.0001) > pChkptFreq=31104000.,
(PID.TID 0000.0001) > chkptFreq=2592000.,
(PID.TID 0000.0001) > dumpFreq=2592000.,
(PID.TID 0000.0001) >#monitorFreq=43200.,
(PID.TID 0000.0001) > taveFreq=0.,
(PID.TID 0000.0001) >#- to run a short test (2.h):
(PID.TID 0000.0001) > nTimeSteps=16,
(PID.TID 0000.0001) > monitorFreq=1.,
(PID.TID 0000.0001) > &
(PID.TID 0000.0001) >
(PID.TID 0000.0001) ># Gridding parameters
(PID.TID 0000.0001) > &PARM04
(PID.TID 0000.0001) > usingCurvilinearGrid=.TRUE.,
(PID.TID 0000.0001) > horizGridFile='grid_cs32',
(PID.TID 0000.0001) > delR=20*50.E2,
(PID.TID 0000.0001) > Ro_SeaLevel=1.E5,
(PID.TID 0000.0001) > &
(PID.TID 0000.0001) >
(PID.TID 0000.0001) ># Input datasets
(PID.TID 0000.0001) > &PARM05
(PID.TID 0000.0001) >#topoFile='topo.cs.bin',
(PID.TID 0000.0001) > &
(PID.TID 0000.0001) 
(PID.TID 0000.0001) S/R INI_PARMS ; starts to read PARM01
(PID.TID 0000.0001) S/R INI_PARMS ; read PARM01 : OK
(PID.TID 0000.0001) S/R INI_PARMS ; starts to read PARM02
(PID.TID 0000.0001) S/R INI_PARMS ; read PARM02 : OK
(PID.TID 0000.0001) S/R INI_PARMS ; starts to read PARM03
(PID.TID 0000.0001) S/R INI_PARMS ; read PARM03 : OK
(PID.TID 0000.0001) S/R INI_PARMS ; starts to read PARM04
(PID.TID 0000.0001) S/R INI_PARMS ; read PARM04 : OK
(PID.TID 0000.0001) S/R INI_PARMS ; starts to read PARM05
(PID.TID 0000.0001) S/R INI_PARMS ; read PARM05 : OK
(PID.TID 0000.0001)  PACKAGES_BOOT: opening data.pkg
(PID.TID 0000.0001)  OPEN_COPY_DATA_FILE: opening file data.pkg
(PID.TID 0000.0001) // =======================================================
(PID.TID 0000.0001) // Parameter file "data.pkg"
(PID.TID 0000.0001) // =======================================================
(PID.TID 0000.0001) ># Packages
(PID.TID 0000.0001) > &PACKAGES
(PID.TID 0000.0001) > useSHAP_FILT=.TRUE.,
(PID.TID 0000.0001) > usediagnostics=.TRUE.,
(PID.TID 0000.0001) >#useMNC=.TRUE.,
(PID.TID 0000.0001) > &
(PID.TID 0000.0001) 
(PID.TID 0000.0001)  PACKAGES_BOOT: finished reading data.pkg
(PID.TID 0000.0001)  SHAP_FILT_READPARMS: opening data.shap
(PID.TID 0000.0001)  OPEN_COPY_DATA_FILE: opening file data.shap
(PID.TID 0000.0001) // =======================================================
(PID.TID 0000.0001) // Parameter file "data.shap"
(PID.TID 0000.0001) // =======================================================
(PID.TID 0000.0001) ># Shapiro Filter parameters
(PID.TID 0000.0001) > &SHAP_PARM01
(PID.TID 0000.0001) > shap_filt_uvStar=.FALSE.,
(PID.TID 0000.0001) > shap_filt_TrStagg=.TRUE.,
(PID.TID 0000.0001) > Shap_funct=2,
(PID.TID 0000.0001) > nShapT=0,
(PID.TID 0000.0001) > nShapUV=4,
(PID.TID 0000.0001) >#nShapTrPhys=0,
(PID.TID 0000.0001) > nShapUVPhys=4,
(PID.TID 0000.0001) >#Shap_TrLength=140000.,
(PID.TID 0000.0001) >#Shap_uvLength=110000.,
(PID.TID 0000.0001) >#Shap_Trtau=5400.,
(PID.TID 0000.0001) >#Shap_uvtau=1800.,
(PID.TID 0000.0001) >#Shap_diagFreq=2592000.,
(PID.TID 0000.0001) > &
(PID.TID 0000.0001) 
(PID.TID 0000.0001)  SHAP_FILT_READPARMS: finished reading data.shap
(PID.TID 0000.0001) Shap_funct =   /* select Shapiro filter function */
(PID.TID 0000.0001)                       2
(PID.TID 0000.0001)     ;
(PID.TID 0000.0001) nShapT =   /* power of Shapiro filter for Temperat */
(PID.TID 0000.0001)                       0
(PID.TID 0000.0001)     ;
(PID.TID 0000.0001) nShapS =   /* power of Shapiro filter for Salinity */
(PID.TID 0000.0001)                       0
(PID.TID 0000.0001)     ;
(PID.TID 0000.0001) nShapUV =   /* power of Shapiro filter for momentum */
(PID.TID 0000.0001)                       4
(PID.TID 0000.0001)     ;
(PID.TID 0000.0001) nShapTrPhys =   /* power of physical-space filter (Tracer) */
(PID.TID 0000.0001)                       0
(PID.TID 0000.0001)     ;
(PID.TID 0000.0001) nShapUVPhys =   /* power of physical-space filter (Momentum) */
(PID.TID 0000.0001)                       4
(PID.TID 0000.0001)     ;
(PID.TID 0000.0001) Shap_Trtau =   /* time scale of Shapiro filter (Tracer) */
(PID.TID 0000.0001)                 4.500000000000000E+02
(PID.TID 0000.0001)     ;
(PID.TID 0000.0001) Shap_TrLength =   /* Length scale of Shapiro filter (Tracer) */
(PID.TID 0000.0001)                 0.000000000000000E+00
(PID.TID 0000.0001)     ;
(PID.TID 0000.0001) Shap_uvtau =   /* time scale of Shapiro filter (Momentum) */
(PID.TID 0000.0001)                 4.500000000000000E+02
(PID.TID 0000.0001)     ;
(PID.TID 0000.0001) Shap_uvLength =   /* Length scale of Shapiro filter (Momentum) */
(PID.TID 0000.0001)                 0.000000000000000E+00
(PID.TID 0000.0001)     ;
(PID.TID 0000.0001) Shap_noSlip =  /* No-slip parameter (0=Free-slip ; 1=No-slip)*/
(PID.TID 0000.0001)                 0.000000000000000E+00
(PID.TID 0000.0001)     ;
(PID.TID 0000.0001) Shap_diagFreq =   /* Frequency^-1 for diagnostic output (s)*/
(PID.TID 0000.0001)                 0.000000000000000E+00
(PID.TID 0000.0001)     ;
(PID.TID 0000.0001)  DIAGNOSTICS_READPARMS: opening data.diagnostics
(PID.TID 0000.0001)  OPEN_COPY_DATA_FILE: opening file data.diagnostics
(PID.TID 0000.0001) // =======================================================
(PID.TID 0000.0001) // Parameter file "data.diagnostics"
(PID.TID 0000.0001) // =======================================================
(PID.TID 0000.0001) ># Diagnostic Package Choices
(PID.TID 0000.0001) >#-----------------
(PID.TID 0000.0001) ># for each output-stream:
(PID.TID 0000.0001) >#  filename(n) : prefix of the output file name (only 8.c long) for outp.stream n
(PID.TID 0000.0001) >#  frequency(n):< 0 : write snap-shot output every |frequency| seconds
(PID.TID 0000.0001) >#               > 0 : write time-average output every frequency seconds
(PID.TID 0000.0001) >#  timePhase(n)     : write at time = timePhase + multiple of |frequency|
(PID.TID 0000.0001) >#  levels(:,n) : list of levels to write to file (Notes: declared as REAL)
(PID.TID 0000.0001) >#                 when this entry is missing, select all common levels of this list
(PID.TID 0000.0001) >#  fields(:,n) : list of diagnostics fields (8.c) (see "available_diagnostics" file
(PID.TID 0000.0001) >#                 for the list of all available diag. in this particular config)
(PID.TID 0000.0001) >#-----------------
(PID.TID 0000.0001) > &diagnostics_list
(PID.TID 0000.0001) ># diag_mnc     = .FALSE.,
(PID.TID 0000.0001) ># frequency(1) = 2592000.,
(PID.TID 0000.0001) >  frequency(1) = 86400.,
(PID.TID 0000.0001) >   filename(1) = 'surfDiag',
(PID.TID 0000.0001) >   levels(1,1) = 1.,
(PID.TID 0000.0001) >   fields(1,1) = 'ETAN    ','ETANSQ  ','DETADT2 ',
(PID.TID 0000.0001) ># frequency(2) = 2592000.,
(PID.TID 0000.0001) >  frequency(2) = 86400.,
(PID.TID 0000.0001) >   filename(2) = 'dynDiag',
(PID.TID 0000.0001) >   fields(1,2) = 'UVEL    ','VVEL    ','WVEL    ','THETA   ','SHAP_dU ',
(PID.TID 0000.0001) ># frequency(3) = 2592000.,
(PID.TID 0000.0001) >  frequency(3) = 86400.,
(PID.TID 0000.0001) >   filename(3) = 'secmomDiag',
(PID.TID 0000.0001) >   fields(1,3) = 'UVELSQ  ','VVELSQ  ','WVELSQ  ','THETASQ ',
(PID.TID 0000.0001) >                 'UTHMASS ','VTHMASS ','WVELTH  ','UV_VEL_C',
(PID.TID 0000.0001) > &
(PID.TID 0000.0001) >
(PID.TID 0000.0001) ># Parameter for Diagnostics of per level statistics:
(PID.TID 0000.0001) >#-----------------
(PID.TID 0000.0001) ># for each output-stream:
(PID.TID 0000.0001) >#  stat_fname(n) : prefix of the output file name (only 8.c long) for outp.stream n
(PID.TID 0000.0001) >#  stat_freq(n):< 0 : write snap-shot output every |stat_freq| seconds
(PID.TID 0000.0001) >#               > 0 : write time-average output every stat_freq seconds
(PID.TID 0000.0001) >#  stat_phase(n)    : write at time = stat_phase + multiple of |stat_freq|
(PID.TID 0000.0001) >#  stat_region(:,n) : list of "regions" (default: 1 region only=global)
(PID.TID 0000.0001) >#  stat_fields(:,n) : list of diagnostics fields (8.c) (see "available_diagnostics.log"
(PID.TID 0000.0001) >#                 file for the list of all available diag. in this particular config)
(PID.TID 0000.0001) >#-----------------
(PID.TID 0000.0001) > &DIAG_STATIS_PARMS
(PID.TID 0000.0001) >#- an example just to check the agreement with MONITOR output:
(PID.TID 0000.0001) > stat_fields(1,1)= 'ETAN    ','UVEL    ','VVEL    ','WVEL    ', 'THETA   ',
(PID.TID 0000.0001) >    stat_fname(1)= 'dynStDiag',
(PID.TID 0000.0001) >#    stat_freq(1)= -864000.,
(PID.TID 0000.0001) >     stat_freq(1)= -3600.,
(PID.TID 0000.0001) >#   stat_phase(1)= 0.,
(PID.TID 0000.0001) > &
(PID.TID 0000.0001) >
(PID.TID 0000.0001) 
(PID.TID 0000.0001) S/R DIAGNOSTICS_READPARMS, read namelist "diagnostics_list": start
(PID.TID 0000.0001) S/R DIAGNOSTICS_READPARMS, read namelist "diagnostics_list": OK
(PID.TID 0000.0001) S/R DIAGNOSTICS_READPARMS, read namelist "DIAG_STATIS_PARMS": start
(PID.TID 0000.0001) S/R DIAGNOSTICS_READPARMS, read namelist "DIAG_STATIS_PARMS": OK
(PID.TID 0000.0001) -----------------------------------------------------
(PID.TID 0000.0001)  DIAGNOSTICS_READPARMS: active diagnostics summary:
(PID.TID 0000.0001) -----------------------------------------------------
(PID.TID 0000.0001) Creating Output Stream: surfDiag
(PID.TID 0000.0001) Frequency :      86400.000000 ; Phase:          0.000000
(PID.TID 0000.0001)  Levels:       1.
(PID.TID 0000.0001)  Fields:    ETAN     ETANSQ   DETADT2
(PID.TID 0000.0001) Creating Output Stream: dynDiag
(PID.TID 0000.0001) Frequency :      86400.000000 ; Phase:          0.000000
(PID.TID 0000.0001)  Levels:    will be set later
(PID.TID 0000.0001)  Fields:    UVEL     VVEL     WVEL     THETA    SHAP_dU
(PID.TID 0000.0001) Creating Output Stream: secmomDiag
(PID.TID 0000.0001) Frequency :      86400.000000 ; Phase:          0.000000
(PID.TID 0000.0001)  Levels:    will be set later
(PID.TID 0000.0001)  Fields:    UVELSQ   VVELSQ   WVELSQ   THETASQ  UTHMASS  VTHMASS  WVELTH   UV_VEL_C
(PID.TID 0000.0001) -----------------------------------------------------
(PID.TID 0000.0001)  DIAGNOSTICS_READPARMS: statistics diags. summary:
(PID.TID 0000.0001) Creating Stats. Output Stream: dynStDiag
(PID.TID 0000.0001) Frequency :      -3600.000000 ; Phase:       1800.000000
(PID.TID 0000.0001)  Regions :    0
(PID.TID 0000.0001)  Fields:    ETAN     UVEL     VVEL     WVEL     THETA
(PID.TID 0000.0001) -----------------------------------------------------
(PID.TID 0000.0001) 
(PID.TID 0000.0001) tile:   1 ; Read from file grid_cs32.face001.bin
(PID.TID 0000.0001)   => XC YC DXF DYF RA XG YG DXV DYU RAZ DXC DYC RAW RAS DXG DYG AngleCS AngleSN
(PID.TID 0000.0001) tile:   2 ; Read from file grid_cs32.face002.bin
(PID.TID 0000.0001)   => XC YC DXF DYF RA XG YG DXV DYU RAZ DXC DYC RAW RAS DXG DYG AngleCS AngleSN
(PID.TID 0000.0001) tile:   3 ; Read from file grid_cs32.face003.bin
(PID.TID 0000.0001)   => XC YC DXF DYF RA XG YG DXV DYU RAZ DXC DYC RAW RAS DXG DYG AngleCS AngleSN
(PID.TID 0000.0001) tile:   4 ; Read from file grid_cs32.face004.bin
(PID.TID 0000.0001)   => XC YC DXF DYF RA XG YG DXV DYU RAZ DXC DYC RAW RAS DXG DYG AngleCS AngleSN
(PID.TID 0000.0001) tile:   5 ; Read from file grid_cs32.face005.bin
(PID.TID 0000.0001)   => XC YC DXF DYF RA XG YG DXV DYU RAZ DXC DYC RAW RAS DXG DYG AngleCS AngleSN
(PID.TID 0000.0001) tile:   6 ; Read from file grid_cs32.face006.bin
(PID.TID 0000.0001)   => XC YC DXF DYF RA XG YG DXV DYU RAZ DXC DYC RAW RAS DXG DYG AngleCS AngleSN
(PID.TID 0000.0001) %MON XC_max                       =   1.7854351589505E+02
(PID.TID 0000.0001) %MON XC_min                       =  -1.7854351589505E+02
(PID.TID 0000.0001) %MON XC_mean                      =  -4.6999441375798E-15
(PID.TID 0000.0001) %MON XC_sd                        =   1.0355545336287E+02
(PID.TID 0000.0001) %MON XG_max                       =   1.8000000000000E+02
(PID.TID 0000.0001) %MON XG_min                       =  -1.7708797161002E+02
(PID.TID 0000.0001) %MON XG_mean                      =   1.8796250616675E+00
(PID.TID 0000.0001) %MON XG_sd                        =   1.0410625309932E+02
(PID.TID 0000.0001) %MON DXC_max                      =   3.2375185836900E+05
(PID.TID 0000.0001) %MON DXC_min                      =   1.1142031410131E+05
(PID.TID 0000.0001) %MON DXC_mean                     =   2.8605689051214E+05
(PID.TID 0000.0001) %MON DXC_sd                       =   3.4042087138252E+04
(PID.TID 0000.0001) %MON DXF_max                      =   3.2369947500827E+05
(PID.TID 0000.0001) %MON DXF_min                      =   1.2020820513318E+05
(PID.TID 0000.0001) %MON DXF_mean                     =   2.8605437324820E+05
(PID.TID 0000.0001) %MON DXF_sd                       =   3.4050524252539E+04
(PID.TID 0000.0001) %MON DXG_max                      =   3.2375195872773E+05
(PID.TID 0000.0001) %MON DXG_min                      =   1.0098378008791E+05
(PID.TID 0000.0001) %MON DXG_mean                     =   2.8603818508931E+05
(PID.TID 0000.0001) %MON DXG_sd                       =   3.4140406908005E+04
(PID.TID 0000.0001) %MON DXV_max                      =   3.2380418162750E+05
(PID.TID 0000.0001) %MON DXV_min                      =   8.0152299824136E+04
(PID.TID 0000.0001) %MON DXV_mean                     =   2.8603970633619E+05
(PID.TID 0000.0001) %MON DXV_sd                       =   3.4145142117723E+04
(PID.TID 0000.0001) %MON YC_max                       =   8.7940663871962E+01
(PID.TID 0000.0001) %MON YC_min                       =  -8.7940663871962E+01
(PID.TID 0000.0001) %MON YC_mean                      =   0.0000000000000E+00
(PID.TID 0000.0001) %MON YC_sd                        =   3.8676242969072E+01
(PID.TID 0000.0001) %MON YG_max                       =   9.0000000000000E+01
(PID.TID 0000.0001) %MON YG_min                       =  -9.0000000000000E+01
(PID.TID 0000.0001) %MON YG_mean                      =  -1.2094344438470E-15
(PID.TID 0000.0001) %MON YG_sd                        =   3.9086186579984E+01
(PID.TID 0000.0001) %MON DYC_max                      =   3.2375185836900E+05
(PID.TID 0000.0001) %MON DYC_min                      =   1.1142031410131E+05
(PID.TID 0000.0001) %MON DYC_mean                     =   2.8605689051214E+05
(PID.TID 0000.0001) %MON DYC_sd                       =   3.4042087138252E+04
(PID.TID 0000.0001) %MON DYF_max                      =   3.2369947500827E+05
(PID.TID 0000.0001) %MON DYF_min                      =   1.2020820513318E+05
(PID.TID 0000.0001) %MON DYF_mean                     =   2.8605437324820E+05
(PID.TID 0000.0001) %MON DYF_sd                       =   3.4050524252539E+04
(PID.TID 0000.0001) %MON DYG_max                      =   3.2375195872773E+05
(PID.TID 0000.0001) %MON DYG_min                      =   1.0098378008791E+05
(PID.TID 0000.0001) %MON DYG_mean                     =   2.8603818508931E+05
(PID.TID 0000.0001) %MON DYG_sd                       =   3.4140406908005E+04
(PID.TID 0000.0001) %MON DYU_max                      =   3.2380418162750E+05
(PID.TID 0000.0001) %MON DYU_min                      =   8.0152299824136E+04
(PID.TID 0000.0001) %MON DYU_mean                     =   2.8603970633619E+05
(PID.TID 0000.0001) %MON DYU_sd                       =   3.4145142117723E+04
(PID.TID 0000.0001) %MON RA_max                       =   1.0479260248419E+11
(PID.TID 0000.0001) %MON RA_min                       =   1.4019007022556E+10
(PID.TID 0000.0001) %MON RA_mean                      =   8.2992246709265E+10
(PID.TID 0000.0001) %MON RA_sd                        =   1.7509089299457E+10
(PID.TID 0000.0001) %MON RAW_max                      =   1.0480965274559E+11
(PID.TID 0000.0001) %MON RAW_min                      =   1.2166903467143E+10
(PID.TID 0000.0001) %MON RAW_mean                     =   8.2992246709235E+10
(PID.TID 0000.0001) %MON RAW_sd                       =   1.7481917919656E+10
(PID.TID 0000.0001) %MON RAS_max                      =   1.0480965274559E+11
(PID.TID 0000.0001) %MON RAS_min                      =   1.2166903467143E+10
(PID.TID 0000.0001) %MON RAS_mean                     =   8.2992246709235E+10
(PID.TID 0000.0001) %MON RAS_sd                       =   1.7481917919656E+10
(PID.TID 0000.0001) %MON RAZ_max                      =   1.0484349334619E+11
(PID.TID 0000.0001) %MON RAZ_min                      =   8.8317900612505E+09
(PID.TID 0000.0001) %MON RAZ_mean                     =   8.2992246709235E+10
(PID.TID 0000.0001) %MON RAZ_sd                       =   1.7482297311044E+10
(PID.TID 0000.0001) %MON AngleCS_max                  =   9.9999994793120E-01
(PID.TID 0000.0001) %MON AngleCS_min                  =  -9.9968337422886E-01
(PID.TID 0000.0001) %MON AngleCS_mean                 =   3.3082691769366E-01
(PID.TID 0000.0001) %MON AngleCS_sd                   =   6.2494283780944E-01
(PID.TID 0000.0001) %MON AngleSN_max                  =   9.9968337422886E-01
(PID.TID 0000.0001) %MON AngleSN_min                  =  -9.9999994793120E-01
(PID.TID 0000.0001) %MON AngleSN_mean                 =  -3.3082691769366E-01
(PID.TID 0000.0001) %MON AngleSN_sd                   =   6.2494283780944E-01
(PID.TID 0000.0001) // =======================================================
(PID.TID 0000.0001) // Field Model R_low (ini_masks_etc) at iteration          1
(PID.TID 0000.0001) // CMIN =          1.000000000000000E+32
(PID.TID 0000.0001) // CMAX =         -1.000000000000000E+32
(PID.TID 0000.0001) // CINT =          0.000000000000000E+00
(PID.TID 0000.0001) // SYMBOLS (CMIN->CMAX): -abcdefghijklmnopqrstuvwxyz+
(PID.TID 0000.0001) //                  0.0: .
(PID.TID 0000.0001) // RANGE I (Lo:Hi:Step):(  -1: 194:   1)
(PID.TID 0000.0001) // RANGE J (Lo:Hi:Step):(  34:  -1:  -1)
(PID.TID 0000.0001) // RANGE K (Lo:Hi:Step):(   1:   1:   1)
(PID.TID 0000.0001) // =======================================================
(PID.TID 0000.0001) // =======================================================
(PID.TID 0000.0001) // END OF FIELD                                          =
(PID.TID 0000.0001) // =======================================================
(PID.TID 0000.0001) 
(PID.TID 0000.0001) // =======================================================
(PID.TID 0000.0001) // Field Model Ro_surf (ini_masks_etc) at iteration          1
(PID.TID 0000.0001) // CMIN =          1.000000000000000E+05
(PID.TID 0000.0001) // CMAX =          1.000000000000000E+05
(PID.TID 0000.0001) // CINT =          0.000000000000000E+00
(PID.TID 0000.0001) // SYMBOLS (CMIN->CMAX): -abcdefghijklmnopqrstuvwxyz+
(PID.TID 0000.0001) //                  0.0: .
(PID.TID 0000.0001) // RANGE I (Lo:Hi:Step):(  -1: 194:   1)
(PID.TID 0000.0001) // RANGE J (Lo:Hi:Step):(  34:  -1:  -1)
(PID.TID 0000.0001) // RANGE K (Lo:Hi:Step):(   1:   1:   1)
(PID.TID 0000.0001) // =======================================================
(PID.TID 0000.0001) // =======================================================
(PID.TID 0000.0001) // END OF FIELD                                          =
(PID.TID 0000.0001) // =======================================================
(PID.TID 0000.0001) 
(PID.TID 0000.0001) // =======================================================
(PID.TID 0000.0001) // Field hFacC at iteration          1
(PID.TID 0000.0001) // CMIN =          1.000000000000000E+00
(PID.TID 0000.0001) // CMAX =          1.000000000000000E+00
(PID.TID 0000.0001) // CINT =          0.000000000000000E+00
(PID.TID 0000.0001) // SYMBOLS (CMIN->CMAX): -abcdefghijklmnopqrstuvwxyz+
(PID.TID 0000.0001) //                  0.0: .
(PID.TID 0000.0001) // RANGE I (Lo:Hi:Step):(  -1: 194:   1)
(PID.TID 0000.0001) // RANGE J (Lo:Hi:Step):(  34:  -1:  -1)
(PID.TID 0000.0001) // RANGE K (Lo:Hi:Step):(   1:   1:   1)
(PID.TID 0000.0001) // =======================================================
(PID.TID 0000.0001) // =======================================================
(PID.TID 0000.0001) // END OF FIELD                                          =
(PID.TID 0000.0001) // =======================================================
(PID.TID 0000.0001) 
(PID.TID 0000.0001) // =======================================================
(PID.TID 0000.0001) // Field hFacW at iteration          1
(PID.TID 0000.0001) // CMIN =          1.000000000000000E+00
(PID.TID 0000.0001) // CMAX =          1.000000000000000E+00
(PID.TID 0000.0001) // CINT =          0.000000000000000E+00
(PID.TID 0000.0001) // SYMBOLS (CMIN->CMAX): -abcdefghijklmnopqrstuvwxyz+
(PID.TID 0000.0001) //                  0.0: .
(PID.TID 0000.0001) // RANGE I (Lo:Hi:Step):(  -1: 194:   1)
(PID.TID 0000.0001) // RANGE J (Lo:Hi:Step):(  34:  -1:  -1)
(PID.TID 0000.0001) // RANGE K (Lo:Hi:Step):(   1:   1:   1)
(PID.TID 0000.0001) // =======================================================
(PID.TID 0000.0001) // =======================================================
(PID.TID 0000.0001) // END OF FIELD                                          =
(PID.TID 0000.0001) // =======================================================
(PID.TID 0000.0001) 
(PID.TID 0000.0001) // =======================================================
(PID.TID 0000.0001) // Field hFacS at iteration          1
(PID.TID 0000.0001) // CMIN =          1.000000000000000E+00
(PID.TID 0000.0001) // CMAX =          1.000000000000000E+00
(PID.TID 0000.0001) // CINT =          0.000000000000000E+00
(PID.TID 0000.0001) // SYMBOLS (CMIN->CMAX): -abcdefghijklmnopqrstuvwxyz+
(PID.TID 0000.0001) //                  0.0: .
(PID.TID 0000.0001) // RANGE I (Lo:Hi:Step):(  -1: 194:   1)
(PID.TID 0000.0001) // RANGE J (Lo:Hi:Step):(  34:  -1:  -1)
(PID.TID 0000.0001) // RANGE K (Lo:Hi:Step):(   1:   1:   1)
(PID.TID 0000.0001) // =======================================================
(PID.TID 0000.0001) // =======================================================
(PID.TID 0000.0001) // END OF FIELD                                          =
(PID.TID 0000.0001) // =======================================================
(PID.TID 0000.0001) 
(PID.TID 0000.0001) 
(PID.TID 0000.0001) // ===================================
(PID.TID 0000.0001) // GAD parameters :
(PID.TID 0000.0001) // ===================================
(PID.TID 0000.0001) tempAdvScheme =   /* Temp. Horiz.Advection scheme selector */
(PID.TID 0000.0001)                       2
(PID.TID 0000.0001)     ;
(PID.TID 0000.0001) tempVertAdvScheme =   /* Temp. Vert. Advection scheme selector */
(PID.TID 0000.0001)                       2
(PID.TID 0000.0001)     ;
(PID.TID 0000.0001) tempMultiDimAdvec =   /* use Muti-Dim Advec method for Temp */
(PID.TID 0000.0001)                   F
(PID.TID 0000.0001)     ;
(PID.TID 0000.0001) tempAdamsBashforth =   /* use Adams-Bashforth time-stepping for Temp */
(PID.TID 0000.0001)                   T
(PID.TID 0000.0001)     ;
(PID.TID 0000.0001) saltAdvScheme =   /* Salt. Horiz.advection scheme selector */
(PID.TID 0000.0001)                       2
(PID.TID 0000.0001)     ;
(PID.TID 0000.0001) saltVertAdvScheme =   /* Salt. Vert. Advection scheme selector */
(PID.TID 0000.0001)                       2
(PID.TID 0000.0001)     ;
(PID.TID 0000.0001) saltMultiDimAdvec =   /* use Muti-Dim Advec method for Salt */
(PID.TID 0000.0001)                   F
(PID.TID 0000.0001)     ;
(PID.TID 0000.0001) saltAdamsBashforth =   /* use Adams-Bashforth time-stepping for Salt */
(PID.TID 0000.0001)                   T
(PID.TID 0000.0001)     ;
(PID.TID 0000.0001) // ===================================
(PID.TID 0000.0001) ------------------------------------------------------------
(PID.TID 0000.0001) DIAGNOSTICS_SET_LEVELS: done
(PID.TID 0000.0001)  Total Nb of available Diagnostics: ndiagt= 148
(PID.TID 0000.0001)  write list of available Diagnostics to file: available_diagnostics.log
(PID.TID 0000.0001) SETDIAG: Allocate  1 Levels for Diagnostic #  23 ETAN
(PID.TID 0000.0001) SETDIAG: Allocate  1 Levels for Diagnostic #  24 ETANSQ
(PID.TID 0000.0001) SETDIAG: Allocate  1 Levels for Diagnostic #  25 DETADT2
(PID.TID 0000.0001) SETDIAG: Allocate 20 Levels for Diagnostic #  30 UVEL
(PID.TID 0000.0001) SETDIAG: Allocate 20 Levels for Diagnostic #  31 VVEL
(PID.TID 0000.0001) SETDIAG: Allocate 20 Levels for Diagnostic #  32 WVEL
(PID.TID 0000.0001) SETDIAG: Allocate 20 Levels for Diagnostic #  26 THETA
(PID.TID 0000.0001) SETDIAG: Allocate 20 Levels for Diagnostic # 147 SHAP_dU
(PID.TID 0000.0001) SETDIAG: Allocate 20 Levels for Diagnostic #  36 UVELSQ
(PID.TID 0000.0001) SETDIAG: Allocate 20 Levels for Diagnostic #  37 VVELSQ
(PID.TID 0000.0001) SETDIAG: Allocate 20 Levels for Diagnostic #  38 WVELSQ
(PID.TID 0000.0001) SETDIAG: Allocate 20 Levels for Diagnostic #  33 THETASQ
(PID.TID 0000.0001) SETDIAG: Allocate 20 Levels for Diagnostic #  46 UTHMASS
(PID.TID 0000.0001) SETDIAG: Allocate 20 Levels for Diagnostic #  47 VTHMASS
(PID.TID 0000.0001) SETDIAG: Allocate 20 Levels for Diagnostic #  54 WVELTH
(PID.TID 0000.0001) SETDIAG: Allocate 20 Levels for Diagnostic #  39 UV_VEL_C
(PID.TID 0000.0001)   space allocated for all diagnostics:   263 levels
(PID.TID 0000.0001)   set mate pointer for diag #  30  UVEL     , Parms: UU   031MR
(PID.TID 0000.0001)   set mate pointer for diag #  31  VVEL     , Parms: VV   030MR
(PID.TID 0000.0001)   set mate pointer for diag #  36  UVELSQ   , Parms: UU   037MR
(PID.TID 0000.0001)   set mate pointer for diag #  37  VVELSQ   , Parms: VV   036MR
(PID.TID 0000.0001)   set mate pointer for diag #  46  UTHMASS  , Parms: UU   047MR
(PID.TID 0000.0001)   set mate pointer for diag #  47  VTHMASS  , Parms: VV   046MR
(PID.TID 0000.0001)   set mate pointer for diag #  39  UV_VEL_C , Parms: UM   039MR
(PID.TID 0000.0001) DIAGNOSTICS_SET_POINTERS: Set levels for Outp.Stream: dynDiag
(PID.TID 0000.0001)  Levels:       1.   2.   3.   4.   5.   6.   7.   8.   9.  10.  11.  12.  13.  14.  15.  16.  17.  18.  19.  20.
(PID.TID 0000.0001) DIAGNOSTICS_SET_POINTERS: Set levels for Outp.Stream: secmomDiag
(PID.TID 0000.0001)  Levels:       1.   2.   3.   4.   5.   6.   7.   8.   9.  10.  11.  12.  13.  14.  15.  16.  17.  18.  19.  20.
(PID.TID 0000.0001) DIAGNOSTICS_SET_POINTERS: done
(PID.TID 0000.0001) ------------------------------------------------------------
(PID.TID 0000.0001) SETDIAG: Allocate  1 Levels for Stats-Diag #  23 ETAN
(PID.TID 0000.0001) SETDIAG: Allocate 20 Levels for Stats-Diag #  30 UVEL
(PID.TID 0000.0001) SETDIAG: Allocate 20 Levels for Stats-Diag #  31 VVEL
(PID.TID 0000.0001) SETDIAG: Allocate 20 Levels for Stats-Diag #  32 WVEL
(PID.TID 0000.0001) SETDIAG: Allocate 20 Levels for Stats-Diag #  26 THETA
(PID.TID 0000.0001)   space allocated for all stats-diags:    81 levels
(PID.TID 0000.0001) DIAGSTATS_SET_POINTERS: done
(PID.TID 0000.0001) ------------------------------------------------------------
(PID.TID 0000.0001) %MON fCori_max                    =   1.4535016908525E-04
(PID.TID 0000.0001) %MON fCori_min                    =  -1.4535016908525E-04
(PID.TID 0000.0001) %MON fCori_mean                   =   0.0000000000000E+00
(PID.TID 0000.0001) %MON fCori_sd                     =   8.3972192788621E-05
(PID.TID 0000.0001) %MON fCoriG_max                   =   1.4544410433286E-04
(PID.TID 0000.0001) %MON fCoriG_min                   =  -1.4544410433286E-04
(PID.TID 0000.0001) %MON fCoriG_mean                  =   0.0000000000000E+00
(PID.TID 0000.0001) %MON fCoriG_sd                    =   8.4860812167727E-05
(PID.TID 0000.0001) %MON fCoriCos_max                 =   1.4540341538469E-04
(PID.TID 0000.0001) %MON fCoriCos_min                 =   5.2264550201501E-06
(PID.TID 0000.0001) %MON fCoriCos_mean                =   1.1482595466044E-04
(PID.TID 0000.0001) %MON fCoriCos_sd                  =   3.0292878037194E-05
(PID.TID 0000.0001) INI_CG2D: CG2D normalisation factor =  9.9119603843467495E-06
(PID.TID 0000.0001) INI_CG2D: cg2dTolerance = 1.123144856357769E-10 (Area=5.0990436378E+14)
(PID.TID 0000.0001) 
(PID.TID 0000.0001) CONFIG_CHECK: OK
(PID.TID 0000.0001) // =======================================================
(PID.TID 0000.0001) // Model configuration
(PID.TID 0000.0001) // =======================================================
(PID.TID 0000.0001) //
(PID.TID 0000.0001) // "Physical" paramters ( PARM01 in namelist )
(PID.TID 0000.0001) //
(PID.TID 0000.0001) buoyancyRelation = ATMOSPHERIC
(PID.TID 0000.0001) fluidIsAir  =  /* fluid major constituent is Air */
(PID.TID 0000.0001)                   T
(PID.TID 0000.0001)     ;
(PID.TID 0000.0001) fluidIsWater=  /* fuild major constituent is Water */
(PID.TID 0000.0001)                   F
(PID.TID 0000.0001)     ;
(PID.TID 0000.0001) usingPCoords =  /* use p (or p*) vertical coordinate */
(PID.TID 0000.0001)                   T
(PID.TID 0000.0001)     ;
(PID.TID 0000.0001) usingZCoords =  /* use z (or z*) vertical coordinate */
(PID.TID 0000.0001)                   F
(PID.TID 0000.0001)     ;
(PID.TID 0000.0001) tRef =   /* Reference temperature profile ( oC or oK ) */
(PID.TID 0000.0001)                 2.952000000000000E+02,      /* K =  1 */
(PID.TID 0000.0001)                 2.955000000000000E+02,      /* K =  2 */
(PID.TID 0000.0001)                 2.959000000000000E+02,      /* K =  3 */
(PID.TID 0000.0001)                 2.963000000000000E+02,      /* K =  4 */
(PID.TID 0000.0001)                 2.967000000000000E+02,      /* K =  5 */
(PID.TID 0000.0001)                 2.971000000000000E+02,      /* K =  6 */
(PID.TID 0000.0001)                 2.976000000000000E+02,      /* K =  7 */
(PID.TID 0000.0001)                 2.981000000000000E+02,      /* K =  8 */
(PID.TID 0000.0001)                 2.987000000000000E+02,      /* K =  9 */
(PID.TID 0000.0001)                 2.993000000000000E+02,      /* K = 10 */
(PID.TID 0000.0001)                 3.000000000000000E+02,      /* K = 11 */
(PID.TID 0000.0001)                 3.007000000000000E+02,      /* K = 12 */
(PID.TID 0000.0001)                 3.019000000000000E+02,      /* K = 13 */
(PID.TID 0000.0001)                 3.041000000000000E+02,      /* K = 14 */
(PID.TID 0000.0001)                 3.080000000000000E+02,      /* K = 15 */
(PID.TID 0000.0001)                 3.151000000000000E+02,      /* K = 16 */
(PID.TID 0000.0001)                 3.295000000000000E+02,      /* K = 17 */
(PID.TID 0000.0001)                 3.623000000000000E+02,      /* K = 18 */
(PID.TID 0000.0001)                 4.192000000000000E+02,      /* K = 19 */
(PID.TID 0000.0001)                 5.738000000000000E+02       /* K = 20 */
(PID.TID 0000.0001)     ;
(PID.TID 0000.0001) sRef =   /* Reference salinity profile ( ppt ) */
(PID.TID 0000.0001)    20 @  0.000000000000000E+00              /* K =  1: 20 */
(PID.TID 0000.0001)     ;
(PID.TID 0000.0001) viscAh =   /* Lateral eddy viscosity ( m^2/s ) */
(PID.TID 0000.0001)                 0.000000000000000E+00
(PID.TID 0000.0001)     ;
(PID.TID 0000.0001) viscAhMax =   /* Maximum lateral eddy viscosity ( m^2/s ) */
(PID.TID 0000.0001)                 1.000000000000000E+21
(PID.TID 0000.0001)     ;
(PID.TID 0000.0001) viscAhGrid =   /* Grid dependent lateral eddy viscosity ( non-dim. ) */
(PID.TID 0000.0001)                 0.000000000000000E+00
(PID.TID 0000.0001)     ;
(PID.TID 0000.0001) useFullLeith =   /* Use Full Form of Leith Viscosity on/off flag*/
(PID.TID 0000.0001)                   F
(PID.TID 0000.0001)     ;
(PID.TID 0000.0001) useStrainTensionVisc =   /* Use StrainTension Form of Viscous Operator on/off flag*/
(PID.TID 0000.0001)                   F
(PID.TID 0000.0001)     ;
(PID.TID 0000.0001) useAreaViscLength =   /* Use area for visc length instead of geom. mean*/
(PID.TID 0000.0001)                   F
(PID.TID 0000.0001)     ;
(PID.TID 0000.0001) viscC2leith = /* Leith harmonic visc. factor (on grad(vort),non-dim.) */
(PID.TID 0000.0001)                 0.000000000000000E+00
(PID.TID 0000.0001)     ;
(PID.TID 0000.0001) viscC2leithD = /* Leith harmonic viscosity factor (on grad(div),non-dim.) */
(PID.TID 0000.0001)                 0.000000000000000E+00
(PID.TID 0000.0001)     ;
(PID.TID 0000.0001) viscC2smag =   /* Smagorinsky harmonic viscosity factor (non-dim.) */
(PID.TID 0000.0001)                 0.000000000000000E+00
(PID.TID 0000.0001)     ;
(PID.TID 0000.0001) viscA4 =   /* Lateral biharmonic viscosity ( m^4/s ) */
(PID.TID 0000.0001)                 0.000000000000000E+00
(PID.TID 0000.0001)     ;
(PID.TID 0000.0001) viscA4Max =   /* Maximum biharmonic viscosity ( m^2/s ) */
(PID.TID 0000.0001)                 1.000000000000000E+21
(PID.TID 0000.0001)     ;
(PID.TID 0000.0001) viscA4Grid =   /* Grid dependent biharmonic viscosity ( non-dim. ) */
(PID.TID 0000.0001)                 0.000000000000000E+00
(PID.TID 0000.0001)     ;
(PID.TID 0000.0001) viscC4leith = /* Leith biharm viscosity factor (on grad(vort), non-dim.) */
(PID.TID 0000.0001)                 0.000000000000000E+00
(PID.TID 0000.0001)     ;
(PID.TID 0000.0001) viscC4leithD = /* Leith biharm viscosity factor (on grad(div), non-dim.) */
(PID.TID 0000.0001)                 0.000000000000000E+00
(PID.TID 0000.0001)     ;
(PID.TID 0000.0001) viscC4Smag = /* Smagorinsky biharm viscosity factor (non-dim) */
(PID.TID 0000.0001)                 0.000000000000000E+00
(PID.TID 0000.0001)     ;
(PID.TID 0000.0001) no_slip_sides =  /* Viscous BCs: No-slip sides */
(PID.TID 0000.0001)                   F
(PID.TID 0000.0001)     ;
(PID.TID 0000.0001) viscAr =   /* Vertical eddy viscosity ( units of r^2/s ) */
(PID.TID 0000.0001)                 0.000000000000000E+00
(PID.TID 0000.0001)     ;
(PID.TID 0000.0001) no_slip_bottom =  /* Viscous BCs: No-slip bottom */
(PID.TID 0000.0001)                   F
(PID.TID 0000.0001)     ;
(PID.TID 0000.0001) diffKhT =   /* Laplacian diffusion of heat laterally ( m^2/s ) */
(PID.TID 0000.0001)                 0.000000000000000E+00
(PID.TID 0000.0001)     ;
(PID.TID 0000.0001) diffK4T =   /* Bihaarmonic diffusion of heat laterally ( m^4/s ) */
(PID.TID 0000.0001)                 0.000000000000000E+00
(PID.TID 0000.0001)     ;
(PID.TID 0000.0001) diffKhS =   /* Laplacian diffusion of salt laterally ( m^2/s ) */
(PID.TID 0000.0001)                 0.000000000000000E+00
(PID.TID 0000.0001)     ;
(PID.TID 0000.0001) diffK4S =   /* Bihaarmonic diffusion of salt laterally ( m^4/s ) */
(PID.TID 0000.0001)                 0.000000000000000E+00
(PID.TID 0000.0001)     ;
(PID.TID 0000.0001) diffKrNrT = /* vertical profile of vertical diffusion of Temp ( m^2/s )*/
(PID.TID 0000.0001)    20 @  0.000000000000000E+00              /* K =  1: 20 */
(PID.TID 0000.0001)     ;
(PID.TID 0000.0001) diffKrNrS = /* vertical profile of vertical diffusion of Salt ( m^2/s )*/
(PID.TID 0000.0001)    20 @  0.000000000000000E+00              /* K =  1: 20 */
(PID.TID 0000.0001)     ;
(PID.TID 0000.0001) diffKrBL79surf =   /* Surface diffusion for Bryan and Lewis 1979 ( m^2/s ) */
(PID.TID 0000.0001)                 0.000000000000000E+00
(PID.TID 0000.0001)     ;
(PID.TID 0000.0001) diffKrBL79deep =   /* Deep diffusion for Bryan and Lewis 1979 ( m^2/s ) */
(PID.TID 0000.0001)                 0.000000000000000E+00
(PID.TID 0000.0001)     ;
(PID.TID 0000.0001) diffKrBL79scl =   /* Depth scale for Bryan and Lewis 1979 ( m ) */
(PID.TID 0000.0001)                 2.000000000000000E+02
(PID.TID 0000.0001)     ;
(PID.TID 0000.0001) diffKrBL79Ho =   /* Turning depth for Bryan and Lewis 1979 ( m ) */
(PID.TID 0000.0001)                -2.000000000000000E+03
(PID.TID 0000.0001)     ;
(PID.TID 0000.0001)  Equation of State : eosType = IDEALG
(PID.TID 0000.0001) tAlpha =   /* Linear EOS thermal expansion coefficient ( 1/degree ) */
(PID.TID 0000.0001)                 1.234567000000000E+05
(PID.TID 0000.0001)     ;
(PID.TID 0000.0001) sBeta =   /* Linear EOS haline contraction coefficient ( 1/ppt ) */
(PID.TID 0000.0001)                 1.234567000000000E+05
(PID.TID 0000.0001)     ;
(PID.TID 0000.0001) atm_Rd =  /* gas constant for dry air ( J/kg/K ) */
(PID.TID 0000.0001)                 2.868571428571428E+02
(PID.TID 0000.0001)     ;
(PID.TID 0000.0001) atm_Cp =  /* specific heat (Cp) of dry air ( J/kg/K ) */
(PID.TID 0000.0001)                 1.004000000000000E+03
(PID.TID 0000.0001)     ;
(PID.TID 0000.0001) atm_kappa =  /* kappa (=Rd/Cp ) of dry air */
(PID.TID 0000.0001)                 2.857142857142857E-01
(PID.TID 0000.0001)     ;
(PID.TID 0000.0001) atm_Rq = /* water vap. specific vol. anomaly relative to dry air */
(PID.TID 0000.0001)                 0.000000000000000E+00
(PID.TID 0000.0001)     ;
(PID.TID 0000.0001) atm_Po =  /* standard reference pressure ( Pa ) */
(PID.TID 0000.0001)                 1.000000000000000E+05
(PID.TID 0000.0001)     ;
(PID.TID 0000.0001) integr_GeoPot =  /* select how the geopotential is integrated */
(PID.TID 0000.0001)                       2
(PID.TID 0000.0001)     ;
(PID.TID 0000.0001) selectFindRoSurf=  /* select how Surf.Ref. pressure is defined */
(PID.TID 0000.0001)                       0
(PID.TID 0000.0001)     ;
(PID.TID 0000.0001) rhonil =   /* Reference density ( kg/m^3 ) */
(PID.TID 0000.0001)                 9.998000000000000E+02
(PID.TID 0000.0001)     ;
(PID.TID 0000.0001) rhoConst =   /* Reference density ( kg/m^3 ) */
(PID.TID 0000.0001)                 9.998000000000000E+02
(PID.TID 0000.0001)     ;
(PID.TID 0000.0001) rhoConstFresh =   /* Reference density ( kg/m^3 ) */
(PID.TID 0000.0001)                 9.998000000000000E+02
(PID.TID 0000.0001)     ;
(PID.TID 0000.0001) gravity =   /* Gravitational acceleration ( m/s^2 ) */
(PID.TID 0000.0001)                 9.810000000000000E+00
(PID.TID 0000.0001)     ;
(PID.TID 0000.0001) gBaro =   /* Barotropic gravity ( m/s^2 ) */
(PID.TID 0000.0001)                 9.810000000000000E+00
(PID.TID 0000.0001)     ;
(PID.TID 0000.0001) rotationPeriod =   /* Rotation Period ( s ) */
(PID.TID 0000.0001)                 8.640000000000000E+04
(PID.TID 0000.0001)     ;
(PID.TID 0000.0001) omega =   /* Angular velocity ( rad/s ) */
(PID.TID 0000.0001)                 7.272205216643040E-05
(PID.TID 0000.0001)     ;
(PID.TID 0000.0001) f0 =   /* Reference coriolis parameter ( 1/s ) */
(PID.TID 0000.0001)                 1.000000000000000E-04
(PID.TID 0000.0001)     ;
(PID.TID 0000.0001) beta =   /* Beta ( 1/(m.s) ) */
(PID.TID 0000.0001)                 9.999999999999999E-12
(PID.TID 0000.0001)     ;
(PID.TID 0000.0001) freeSurfFac =   /* Implicit free surface factor */
(PID.TID 0000.0001)                 1.000000000000000E+00
(PID.TID 0000.0001)     ;
(PID.TID 0000.0001) implicitFreeSurface =   /* Implicit free surface on/off flag */
(PID.TID 0000.0001)                   T
(PID.TID 0000.0001)     ;
(PID.TID 0000.0001) rigidLid =   /* Rigid lid on/off flag */
(PID.TID 0000.0001)                   F
(PID.TID 0000.0001)     ;
(PID.TID 0000.0001) implicSurfPress =   /* Surface Pressure implicit factor (0-1)*/
(PID.TID 0000.0001)                 1.000000000000000E+00
(PID.TID 0000.0001)     ;
(PID.TID 0000.0001) implicDiv2Dflow =   /* Barot. Flow Div. implicit factor (0-1)*/
(PID.TID 0000.0001)                 1.000000000000000E+00
(PID.TID 0000.0001)     ;
(PID.TID 0000.0001) exactConserv =   /* Exact Volume Conservation on/off flag*/
(PID.TID 0000.0001)                   T
(PID.TID 0000.0001)     ;
(PID.TID 0000.0001) uniformLin_PhiSurf =   /* use uniform Bo_surf on/off flag*/
(PID.TID 0000.0001)                   F
(PID.TID 0000.0001)     ;
(PID.TID 0000.0001) nonlinFreeSurf =   /* Non-linear Free Surf. options (-1,0,1,2,3)*/
(PID.TID 0000.0001)                       4
(PID.TID 0000.0001)     ;
(PID.TID 0000.0001)      -1,0= Off ; 1,2,3= On, 2=+rescale gU,gV, 3=+update cg2d solv.
(PID.TID 0000.0001) hFacInf =   /* lower threshold for hFac (nonlinFreeSurf only)*/
(PID.TID 0000.0001)                 2.000000000000000E-01
(PID.TID 0000.0001)     ;
(PID.TID 0000.0001) hFacSup =   /* upper threshold for hFac (nonlinFreeSurf only)*/
(PID.TID 0000.0001)                 2.000000000000000E+00
(PID.TID 0000.0001)     ;
(PID.TID 0000.0001) select_rStar =   /* r* Coordinate options (not yet implemented)*/
(PID.TID 0000.0001)                       2
(PID.TID 0000.0001)     ;
(PID.TID 0000.0001) useRealFreshWaterFlux =   /* Real Fresh Water Flux on/off flag*/
(PID.TID 0000.0001)                   F
(PID.TID 0000.0001)     ;
(PID.TID 0000.0001) convertFW2Salt = /* convert F.W. Flux to Salt Flux (-1=use local S)(ppt)*/
(PID.TID 0000.0001)                 3.500000000000000E+01
(PID.TID 0000.0001)     ;
(PID.TID 0000.0001) nonHydrostatic =  /* Non-Hydrostatic on/off flag */
(PID.TID 0000.0001)                   F
(PID.TID 0000.0001)     ;
(PID.TID 0000.0001) momStepping =  /* Momentum equation on/off flag */
(PID.TID 0000.0001)                   T
(PID.TID 0000.0001)     ;
(PID.TID 0000.0001) momAdvection =  /* Momentum advection on/off flag */
(PID.TID 0000.0001)                   T
(PID.TID 0000.0001)     ;
(PID.TID 0000.0001) momViscosity =  /* Momentum viscosity on/off flag */
(PID.TID 0000.0001)                   F
(PID.TID 0000.0001)     ;
(PID.TID 0000.0001) momImplVertAdv =/* Momentum implicit vert. advection on/off*/
(PID.TID 0000.0001)                   F
(PID.TID 0000.0001)     ;
(PID.TID 0000.0001) implicitViscosity = /* Implicit viscosity on/off flag */
(PID.TID 0000.0001)                   F
(PID.TID 0000.0001)     ;
(PID.TID 0000.0001) useCoriolis =  /* Coriolis on/off flag */
(PID.TID 0000.0001)                   T
(PID.TID 0000.0001)     ;
(PID.TID 0000.0001) useCDscheme =  /* CD scheme on/off flag */
(PID.TID 0000.0001)                   F
(PID.TID 0000.0001)     ;
(PID.TID 0000.0001) useJamartWetPoints= /* Coriolis WetPoints method flag */
(PID.TID 0000.0001)                   F
(PID.TID 0000.0001)     ;
(PID.TID 0000.0001) useJamartMomAdv= /* V.I. Non-linear terms Jamart flag */
(PID.TID 0000.0001)                   F
(PID.TID 0000.0001)     ;
(PID.TID 0000.0001) SadournyCoriolis= /* Sadourny Coriolis discr. flag */
(PID.TID 0000.0001)                   F
(PID.TID 0000.0001)     ;
(PID.TID 0000.0001) upwindVorticity= /* Upwind bias vorticity flag */
(PID.TID 0000.0001)                   F
(PID.TID 0000.0001)     ;
(PID.TID 0000.0001) useAbsVorticity= /* Work with f+zeta in Coriolis */
(PID.TID 0000.0001)                   F
(PID.TID 0000.0001)     ;
(PID.TID 0000.0001) highOrderVorticity= /* High order interp. of vort. flag */
(PID.TID 0000.0001)                   F
(PID.TID 0000.0001)     ;
(PID.TID 0000.0001) upwindShear= /* Upwind vertical Shear advection flag */
(PID.TID 0000.0001)                   F
(PID.TID 0000.0001)     ;
(PID.TID 0000.0001) momForcing =  /* Momentum forcing on/off flag */
(PID.TID 0000.0001)                   T
(PID.TID 0000.0001)     ;
(PID.TID 0000.0001) momPressureForcing =  /* Momentum pressure term on/off flag */
(PID.TID 0000.0001)                   T
(PID.TID 0000.0001)     ;
(PID.TID 0000.0001) staggerTimeStep =   /* Stagger time stepping on/off flag */
(PID.TID 0000.0001)                   T
(PID.TID 0000.0001)     ;
(PID.TID 0000.0001) multiDimAdvection =   /* enable/disable Multi-Dim Advection */
(PID.TID 0000.0001)                   T
(PID.TID 0000.0001)     ;
(PID.TID 0000.0001) useMultiDimAdvec =   /* Multi-Dim Advection is/is-not used */
(PID.TID 0000.0001)                   F
(PID.TID 0000.0001)     ;
(PID.TID 0000.0001) implicitDiffusion =/* Implicit Diffusion on/off flag */
(PID.TID 0000.0001)                   F
(PID.TID 0000.0001)     ;
(PID.TID 0000.0001) tempStepping =  /* Temperature equation on/off flag */
(PID.TID 0000.0001)                   T
(PID.TID 0000.0001)     ;
(PID.TID 0000.0001) tempAdvection=  /* Temperature advection on/off flag */
(PID.TID 0000.0001)                   T
(PID.TID 0000.0001)     ;
(PID.TID 0000.0001) tempImplVertAdv =/* Temp. implicit vert. advection on/off */
(PID.TID 0000.0001)                   F
(PID.TID 0000.0001)     ;
(PID.TID 0000.0001) tempForcing  =  /* Temperature forcing on/off flag */
(PID.TID 0000.0001)                   T
(PID.TID 0000.0001)     ;
(PID.TID 0000.0001) saltStepping =  /* Salinity equation on/off flag */
(PID.TID 0000.0001)                   F
(PID.TID 0000.0001)     ;
(PID.TID 0000.0001) saltAdvection=  /* Salinity advection on/off flag */
(PID.TID 0000.0001)                   F
(PID.TID 0000.0001)     ;
(PID.TID 0000.0001) saltImplVertAdv =/* Sali. implicit vert. advection on/off */
(PID.TID 0000.0001)                   F
(PID.TID 0000.0001)     ;
(PID.TID 0000.0001) saltForcing  =  /* Salinity forcing on/off flag */
(PID.TID 0000.0001)                   F
(PID.TID 0000.0001)     ;
(PID.TID 0000.0001)  debugMode  =  /* Debug Mode on/off flag */
(PID.TID 0000.0001)                   F
(PID.TID 0000.0001)     ;
(PID.TID 0000.0001)    debLevA  =  /* 1rst level of debugging */
(PID.TID 0000.0001)                       1
(PID.TID 0000.0001)     ;
(PID.TID 0000.0001)    debLevB  =  /* 2nd  level of debugging */
(PID.TID 0000.0001)                       2
(PID.TID 0000.0001)     ;
(PID.TID 0000.0001)  debugLevel =  /* select debugging level */
(PID.TID 0000.0001)                       1
(PID.TID 0000.0001)     ;
(PID.TID 0000.0001) //
(PID.TID 0000.0001) // Elliptic solver(s) paramters ( PARM02 in namelist )
(PID.TID 0000.0001) //
(PID.TID 0000.0001) cg2dMaxIters =   /* Upper limit on 2d con. grad iterations  */
(PID.TID 0000.0001)                     200
(PID.TID 0000.0001)     ;
(PID.TID 0000.0001) cg2dChkResFreq =   /* 2d con. grad convergence test frequency */
(PID.TID 0000.0001)                       1
(PID.TID 0000.0001)     ;
(PID.TID 0000.0001) cg2dTargetResidual =   /* 2d con. grad target residual  */
(PID.TID 0000.0001)                 1.000000000000000E-07
(PID.TID 0000.0001)     ;
(PID.TID 0000.0001) cg2dTargetResWunit =   /* CG2d target residual [W units] */
(PID.TID 0000.0001)                 1.000000000000000E-17
(PID.TID 0000.0001)     ;
(PID.TID 0000.0001) cg2dPreCondFreq =   /* Freq. for updating cg2d preconditioner */
(PID.TID 0000.0001)                       1
(PID.TID 0000.0001)     ;
(PID.TID 0000.0001) //
(PID.TID 0000.0001) // Time stepping paramters ( PARM03 in namelist )
(PID.TID 0000.0001) //
(PID.TID 0000.0001) nIter0 =   /* Run starting timestep number  */
(PID.TID 0000.0001)                  276480
(PID.TID 0000.0001)     ;
(PID.TID 0000.0001) nTimeSteps =   /* Number of timesteps */
(PID.TID 0000.0001)                      16
(PID.TID 0000.0001)     ;
(PID.TID 0000.0001) deltatTmom =   /* Momentum equation timestep ( s ) */
(PID.TID 0000.0001)                 4.500000000000000E+02
(PID.TID 0000.0001)     ;
(PID.TID 0000.0001) deltaTfreesurf =   /* FreeSurface equation timestep ( s ) */
(PID.TID 0000.0001)                 4.500000000000000E+02
(PID.TID 0000.0001)     ;
(PID.TID 0000.0001) dTtracerLev =   /* Tracer equation timestep ( s ) */
(PID.TID 0000.0001)    20 @  4.500000000000000E+02              /* K =  1: 20 */
(PID.TID 0000.0001)     ;
(PID.TID 0000.0001) deltatTClock  =   /* Model clock timestep ( s ) */
(PID.TID 0000.0001)                 4.500000000000000E+02
(PID.TID 0000.0001)     ;
(PID.TID 0000.0001) cAdjFreq =   /* Convective adjustment interval ( s ) */
(PID.TID 0000.0001)                 0.000000000000000E+00
(PID.TID 0000.0001)     ;
(PID.TID 0000.0001) forcing_In_AB =   /* put T,S Forcing in Adams-Bash. stepping */
(PID.TID 0000.0001)                   F
(PID.TID 0000.0001)     ;
(PID.TID 0000.0001) abEps =   /* Adams-Bashforth-2 stabilizing weight */
(PID.TID 0000.0001)                 1.000000000000000E-01
(PID.TID 0000.0001)     ;
(PID.TID 0000.0001) baseTime =   /* Model base time ( s ). */
(PID.TID 0000.0001)                 0.000000000000000E+00
(PID.TID 0000.0001)     ;
(PID.TID 0000.0001) startTime =   /* Run start time ( s ). */
(PID.TID 0000.0001)                 1.244160000000000E+08
(PID.TID 0000.0001)     ;
(PID.TID 0000.0001) endTime =   /* Integration ending time ( s ). */
(PID.TID 0000.0001)                 1.244232000000000E+08
(PID.TID 0000.0001)     ;
(PID.TID 0000.0001) pChkPtFreq =   /* Permanent restart/checkpoint file interval ( s ). */
(PID.TID 0000.0001)                 3.110400000000000E+07
(PID.TID 0000.0001)     ;
(PID.TID 0000.0001) chkPtFreq =   /* Rolling restart/checkpoint file interval ( s ). */
(PID.TID 0000.0001)                 2.592000000000000E+06
(PID.TID 0000.0001)     ;
(PID.TID 0000.0001) pickup_write_mdsio =   /* Model IO flag. */
(PID.TID 0000.0001)                   T
(PID.TID 0000.0001)     ;
(PID.TID 0000.0001) pickup_read_mdsio =   /* Model IO flag. */
(PID.TID 0000.0001)                   T
(PID.TID 0000.0001)     ;
(PID.TID 0000.0001) pickup_write_mnc =   /* Model IO flag. */
(PID.TID 0000.0001)                   F
(PID.TID 0000.0001)     ;
(PID.TID 0000.0001) pickup_read_mnc =   /* Model IO flag. */
(PID.TID 0000.0001)                   F
(PID.TID 0000.0001)     ;
(PID.TID 0000.0001) pickup_write_immed =   /* Model IO flag. */
(PID.TID 0000.0001)                   F
(PID.TID 0000.0001)     ;
(PID.TID 0000.0001) dumpFreq =   /* Model state write out interval ( s ). */
(PID.TID 0000.0001)                 2.592000000000000E+06
(PID.TID 0000.0001)     ;
(PID.TID 0000.0001) dumpInitAndLast= /* write out Initial & Last iter. model state */
(PID.TID 0000.0001)                   T
(PID.TID 0000.0001)     ;
(PID.TID 0000.0001) snapshot_mdsio =   /* Model IO flag. */
(PID.TID 0000.0001)                   T
(PID.TID 0000.0001)     ;
(PID.TID 0000.0001) snapshot_mnc =   /* Model IO flag. */
(PID.TID 0000.0001)                   F
(PID.TID 0000.0001)     ;
(PID.TID 0000.0001) monitorFreq =   /* Monitor output interval ( s ). */
(PID.TID 0000.0001)                 1.000000000000000E+00
(PID.TID 0000.0001)     ;
(PID.TID 0000.0001) monitor_stdio =   /* Model IO flag. */
(PID.TID 0000.0001)                   T
(PID.TID 0000.0001)     ;
(PID.TID 0000.0001) monitor_mnc =   /* Model IO flag. */
(PID.TID 0000.0001)                   F
(PID.TID 0000.0001)     ;
(PID.TID 0000.0001) externForcingPeriod =   /* forcing period (s) */
(PID.TID 0000.0001)                 0.000000000000000E+00
(PID.TID 0000.0001)     ;
(PID.TID 0000.0001) externForcingCycle =   /* period of the cyle (s). */
(PID.TID 0000.0001)                 0.000000000000000E+00
(PID.TID 0000.0001)     ;
(PID.TID 0000.0001) tauThetaClimRelax =   /* relaxation time scale (s) */
(PID.TID 0000.0001)                 0.000000000000000E+00
(PID.TID 0000.0001)     ;
(PID.TID 0000.0001) tauSaltClimRelax =   /* relaxation time scale (s) */
(PID.TID 0000.0001)                 0.000000000000000E+00
(PID.TID 0000.0001)     ;
(PID.TID 0000.0001) latBandClimRelax =   /* max. Lat. where relaxation */
(PID.TID 0000.0001)                 1.800000000000000E+02
(PID.TID 0000.0001)     ;
(PID.TID 0000.0001) //
(PID.TID 0000.0001) // Gridding paramters ( PARM04 in namelist )
(PID.TID 0000.0001) //
(PID.TID 0000.0001) usingCartesianGrid =   /* Cartesian coordinates flag ( True / False ) */
(PID.TID 0000.0001)                   F
(PID.TID 0000.0001)     ;
(PID.TID 0000.0001) usingSphericalPolarGrid =   /* Spherical coordinates flag ( True / False ) */
(PID.TID 0000.0001)                   F
(PID.TID 0000.0001)     ;
(PID.TID 0000.0001) usingCylindricalGrid =   /* Spherical coordinates flag ( True / False ) */
(PID.TID 0000.0001)                   F
(PID.TID 0000.0001)     ;
(PID.TID 0000.0001) Ro_SeaLevel =   /* r(1) ( units of r ) */
(PID.TID 0000.0001)                 1.000000000000000E+05
(PID.TID 0000.0001)     ;
(PID.TID 0000.0001) rkSign =   /* index orientation relative to vertical coordinate */
(PID.TID 0000.0001)                -1.000000000000000E+00
(PID.TID 0000.0001)     ;
(PID.TID 0000.0001) horiVertRatio =   /* Ratio on units : Horiz - Vertical */
(PID.TID 0000.0001)                 9.808038000000000E+03
(PID.TID 0000.0001)     ;
(PID.TID 0000.0001) drC =   /* C spacing ( units of r ) */
(PID.TID 0000.0001)                 2.500000000000000E+03,      /* K =  1 */
(PID.TID 0000.0001)    19 @  5.000000000000000E+03              /* K =  2: 20 */
(PID.TID 0000.0001)     ;
(PID.TID 0000.0001) drF =   /* W spacing ( units of r ) */
(PID.TID 0000.0001)    20 @  5.000000000000000E+03              /* K =  1: 20 */
(PID.TID 0000.0001)     ;
(PID.TID 0000.0001) delX =   /* U spacing ( m - cartesian, degrees - spherical ) */
(PID.TID 0000.0001)   192 @  1.234567000000000E+05              /* I =  1:192 */
(PID.TID 0000.0001)     ;
(PID.TID 0000.0001) delY =   /* V spacing ( m - cartesian, degrees - spherical ) */
(PID.TID 0000.0001)    32 @  1.234567000000000E+05              /* J =  1: 32 */
(PID.TID 0000.0001)     ;
(PID.TID 0000.0001) phiMin =    /* South edge (ignored - cartesian, degrees - spherical ) */
(PID.TID 0000.0001)                 0.000000000000000E+00
(PID.TID 0000.0001)     ;
(PID.TID 0000.0001) thetaMin =    /* West edge ( ignored - cartesian, degrees - spherical ) */
(PID.TID 0000.0001)                 0.000000000000000E+00
(PID.TID 0000.0001)     ;
(PID.TID 0000.0001) rSphere =    /* Radius ( ignored - cartesian, m - spherical ) */
(PID.TID 0000.0001)                 6.370000000000000E+06
(PID.TID 0000.0001)     ;
(PID.TID 0000.0001) xcoord =   /* P-point X coord ( m - cartesian, degrees - spherical ) */
(PID.TID 0000.0001)                -4.439521994760536E+01,      /* I =  1 */
(PID.TID 0000.0001)                -4.295641272275883E+01,      /* I =  2 */
(PID.TID 0000.0001)                -4.122055553388957E+01,      /* I =  3 */
(PID.TID 0000.0001)                -3.923446288487304E+01,      /* I =  4 */
(PID.TID 0000.0001)                -3.702585158682200E+01,      /* I =  5 */
(PID.TID 0000.0001)                -3.461179367094151E+01,      /* I =  6 */
(PID.TID 0000.0001)                -3.200434569041793E+01,      /* I =  7 */
(PID.TID 0000.0001)                -2.921355965632675E+01,      /* I =  8 */
(PID.TID 0000.0001)                -2.624932223028290E+01,      /* I =  9 */
(PID.TID 0000.0001)                -2.312261250426344E+01,      /* I = 10 */
(PID.TID 0000.0001)                -1.984640717127058E+01,      /* I = 11 */
(PID.TID 0000.0001)                -1.643630800555134E+01,      /* I = 12 */
(PID.TID 0000.0001)                -1.291089806302069E+01,      /* I = 13 */
(PID.TID 0000.0001)                -9.291807802719402E+00,      /* I = 14 */
(PID.TID 0000.0001)                -5.603475335822332E+00,      /* I = 15 */
(PID.TID 0000.0001)                -1.872608513033445E+00,      /* I = 16 */
(PID.TID 0000.0001)                 1.872608513033445E+00,      /* I = 17 */
(PID.TID 0000.0001)                 5.603475335822332E+00,      /* I = 18 */
(PID.TID 0000.0001)                 9.291807802719402E+00,      /* I = 19 */
(PID.TID 0000.0001)                 1.291089806302069E+01,      /* I = 20 */
(PID.TID 0000.0001)                 1.643630800555134E+01,      /* I = 21 */
(PID.TID 0000.0001)                 1.984640717127058E+01,      /* I = 22 */
(PID.TID 0000.0001)                 2.312261250426344E+01,      /* I = 23 */
(PID.TID 0000.0001)                 2.624932223028290E+01,      /* I = 24 */
(PID.TID 0000.0001)                 2.921355965632675E+01,      /* I = 25 */
(PID.TID 0000.0001)                 3.200434569041793E+01,      /* I = 26 */
(PID.TID 0000.0001)                 3.461179367094151E+01,      /* I = 27 */
(PID.TID 0000.0001)                 3.702585158682200E+01,      /* I = 28 */
(PID.TID 0000.0001)                 3.923446288487304E+01,      /* I = 29 */
(PID.TID 0000.0001)                 4.122055553388957E+01,      /* I = 30 */
(PID.TID 0000.0001)                 4.295641272275883E+01,      /* I = 31 */
(PID.TID 0000.0001)                 4.439521994760536E+01,      /* I = 32 */
(PID.TID 0000.0001)                 4.560478005239464E+01,      /* I = 33 */
(PID.TID 0000.0001)                 4.704358727724117E+01,      /* I = 34 */
(PID.TID 0000.0001)                 4.877944446611043E+01,      /* I = 35 */
(PID.TID 0000.0001)                 5.076553711512697E+01,      /* I = 36 */
(PID.TID 0000.0001)                 5.297414841317801E+01,      /* I = 37 */
(PID.TID 0000.0001)                 5.538820632905850E+01,      /* I = 38 */
(PID.TID 0000.0001)                 5.799565430958209E+01,      /* I = 39 */
(PID.TID 0000.0001)                 6.078644034367325E+01,      /* I = 40 */
(PID.TID 0000.0001)                 6.375067776971711E+01,      /* I = 41 */
(PID.TID 0000.0001)                 6.687738749573657E+01,      /* I = 42 */
(PID.TID 0000.0001)                 7.015359282872943E+01,      /* I = 43 */
(PID.TID 0000.0001)                 7.356369199444866E+01,      /* I = 44 */
(PID.TID 0000.0001)                 7.708910193697932E+01,      /* I = 45 */
(PID.TID 0000.0001)                 8.070819219728060E+01,      /* I = 46 */
(PID.TID 0000.0001)                 8.439652466417766E+01,      /* I = 47 */
(PID.TID 0000.0001)                 8.812739148696656E+01,      /* I = 48 */
(PID.TID 0000.0001)                 9.187260851303344E+01,      /* I = 49 */
(PID.TID 0000.0001)                 9.560347533582234E+01,      /* I = 50 */
(PID.TID 0000.0001)                 9.929180780271940E+01,      /* I = 51 */
(PID.TID 0000.0001)                 1.029108980630207E+02,      /* I = 52 */
(PID.TID 0000.0001)                 1.064363080055513E+02,      /* I = 53 */
(PID.TID 0000.0001)                 1.098464071712706E+02,      /* I = 54 */
(PID.TID 0000.0001)                 1.131226125042634E+02,      /* I = 55 */
(PID.TID 0000.0001)                 1.162493222302829E+02,      /* I = 56 */
(PID.TID 0000.0001)                 1.192135596563268E+02,      /* I = 57 */
(PID.TID 0000.0001)                 1.220043456904179E+02,      /* I = 58 */
(PID.TID 0000.0001)                 1.246117936709415E+02,      /* I = 59 */
(PID.TID 0000.0001)                 1.270258515868220E+02,      /* I = 60 */
(PID.TID 0000.0001)                 1.292344628848730E+02,      /* I = 61 */
(PID.TID 0000.0001)                 1.312205555338896E+02,      /* I = 62 */
(PID.TID 0000.0001)                 1.329564127227588E+02,      /* I = 63 */
(PID.TID 0000.0001)                 1.343952199476053E+02,      /* I = 64 */
(PID.TID 0000.0001)                 4.500000000000000E+01,      /* I = 65 */
(PID.TID 0000.0001)                 4.620805468796297E+01,      /* I = 66 */
(PID.TID 0000.0001)                 4.781369642513039E+01,      /* I = 67 */
(PID.TID 0000.0001)                 4.971767671143929E+01,      /* I = 68 */
(PID.TID 0000.0001)                 5.187738319787235E+01,      /* I = 69 */
(PID.TID 0000.0001)                 5.427004371478710E+01,      /* I = 70 */
(PID.TID 0000.0001)                 5.688128325334060E+01,      /* I = 71 */
(PID.TID 0000.0001)                 5.970018167786760E+01,      /* I = 72 */
(PID.TID 0000.0001)                 6.271654991792347E+01,      /* I = 73 */
(PID.TID 0000.0001)                 6.591914604853015E+01,      /* I = 74 */
(PID.TID 0000.0001)                 6.929439270484148E+01,      /* I = 75 */
(PID.TID 0000.0001)                 7.282545807616151E+01,      /* I = 76 */
(PID.TID 0000.0001)                 7.649168830618933E+01,      /* I = 77 */
(PID.TID 0000.0001)                 8.026842803787176E+01,      /* I = 78 */
(PID.TID 0000.0001)                 8.412726743124185E+01,      /* I = 79 */
(PID.TID 0000.0001)                 8.803672008547504E+01,      /* I = 80 */
(PID.TID 0000.0001)                 9.196327991452496E+01,      /* I = 81 */
(PID.TID 0000.0001)                 9.587273256875815E+01,      /* I = 82 */
(PID.TID 0000.0001)                 9.973157196212824E+01,      /* I = 83 */
(PID.TID 0000.0001)                 1.035083116938107E+02,      /* I = 84 */
(PID.TID 0000.0001)                 1.071745419238385E+02,      /* I = 85 */
(PID.TID 0000.0001)                 1.107056072951585E+02,      /* I = 86 */
(PID.TID 0000.0001)                 1.140808539514698E+02,      /* I = 87 */
(PID.TID 0000.0001)                 1.172834500820765E+02,      /* I = 88 */
(PID.TID 0000.0001)                 1.202998183221324E+02,      /* I = 89 */
(PID.TID 0000.0001)                 1.231187167466594E+02,      /* I = 90 */
(PID.TID 0000.0001)                 1.257299562852129E+02,      /* I = 91 */
(PID.TID 0000.0001)                 1.281226168021277E+02,      /* I = 92 */
(PID.TID 0000.0001)                 1.302823232885607E+02,      /* I = 93 */
(PID.TID 0000.0001)                 1.321863035748696E+02,      /* I = 94 */
(PID.TID 0000.0001)                 1.337919453120370E+02,      /* I = 95 */
(PID.TID 0000.0001)                 1.350000000000000E+02,      /* I = 96 */
(PID.TID 0000.0001)                 1.356047800523947E+02,      /* I = 97 */
(PID.TID 0000.0001)                 1.358367907661329E+02,      /* I = 98 */
(PID.TID 0000.0001)                 1.359720382181193E+02,      /* I = 99 */
(PID.TID 0000.0001)                 1.360654656901789E+02,      /* I =100 */
(PID.TID 0000.0001)                 1.361344533147042E+02,      /* I =101 */
(PID.TID 0000.0001)                 1.361871219420981E+02,      /* I =102 */
(PID.TID 0000.0001)                 1.362280794509603E+02,      /* I =103 */
(PID.TID 0000.0001)                 1.362602511071934E+02,      /* I =104 */
(PID.TID 0000.0001)                 1.362856280326734E+02,      /* I =105 */
(PID.TID 0000.0001)                 1.363056266270901E+02,      /* I =106 */
(PID.TID 0000.0001)                 1.363212817739446E+02,      /* I =107 */
(PID.TID 0000.0001)                 1.363333595910255E+02,      /* I =108 */
(PID.TID 0000.0001)                 1.363424272425760E+02,      /* I =109 */
(PID.TID 0000.0001)                 1.363488978790713E+02,      /* I =110 */
(PID.TID 0000.0001)                 1.363530600590580E+02,      /* I =111 */
(PID.TID 0000.0001)     2 @  1.363550967500717E+02,             /* I =112:113 */
(PID.TID 0000.0001)                 1.363530600590580E+02,      /* I =114 */
(PID.TID 0000.0001)                 1.363488978790713E+02,      /* I =115 */
(PID.TID 0000.0001)                 1.363424272425760E+02,      /* I =116 */
(PID.TID 0000.0001)                 1.363333595910255E+02,      /* I =117 */
(PID.TID 0000.0001)                 1.363212817739446E+02,      /* I =118 */
(PID.TID 0000.0001)                 1.363056266270901E+02,      /* I =119 */
(PID.TID 0000.0001)                 1.362856280326734E+02,      /* I =120 */
(PID.TID 0000.0001)                 1.362602511071934E+02,      /* I =121 */
(PID.TID 0000.0001)                 1.362280794509603E+02,      /* I =122 */
(PID.TID 0000.0001)                 1.361871219420981E+02,      /* I =123 */
(PID.TID 0000.0001)                 1.361344533147042E+02,      /* I =124 */
(PID.TID 0000.0001)                 1.360654656901789E+02,      /* I =125 */
(PID.TID 0000.0001)                 1.359720382181193E+02,      /* I =126 */
(PID.TID 0000.0001)                 1.358367907661329E+02,      /* I =127 */
(PID.TID 0000.0001)                 1.356047800523947E+02,      /* I =128 */
(PID.TID 0000.0001)                -1.343952199476053E+02,      /* I =129 */
(PID.TID 0000.0001)                -1.341632092338671E+02,      /* I =130 */
(PID.TID 0000.0001)                -1.340279617818807E+02,      /* I =131 */
(PID.TID 0000.0001)                -1.339345343098211E+02,      /* I =132 */
(PID.TID 0000.0001)                -1.338655466852958E+02,      /* I =133 */
(PID.TID 0000.0001)                -1.338128780579019E+02,      /* I =134 */
(PID.TID 0000.0001)                -1.337719205490397E+02,      /* I =135 */
(PID.TID 0000.0001)                -1.337397488928066E+02,      /* I =136 */
(PID.TID 0000.0001)                -1.337143719673266E+02,      /* I =137 */
(PID.TID 0000.0001)                -1.336943733729099E+02,      /* I =138 */
(PID.TID 0000.0001)                -1.336787182260554E+02,      /* I =139 */
(PID.TID 0000.0001)                -1.336666404089745E+02,      /* I =140 */
(PID.TID 0000.0001)                -1.336575727574240E+02,      /* I =141 */
(PID.TID 0000.0001)                -1.336511021209287E+02,      /* I =142 */
(PID.TID 0000.0001)                -1.336469399409420E+02,      /* I =143 */
(PID.TID 0000.0001)     2 @ -1.336449032499283E+02,             /* I =144:145 */
(PID.TID 0000.0001)                -1.336469399409420E+02,      /* I =146 */
(PID.TID 0000.0001)                -1.336511021209287E+02,      /* I =147 */
(PID.TID 0000.0001)                -1.336575727574240E+02,      /* I =148 */
(PID.TID 0000.0001)                -1.336666404089745E+02,      /* I =149 */
(PID.TID 0000.0001)                -1.336787182260554E+02,      /* I =150 */
(PID.TID 0000.0001)                -1.336943733729099E+02,      /* I =151 */
(PID.TID 0000.0001)                -1.337143719673266E+02,      /* I =152 */
(PID.TID 0000.0001)                -1.337397488928066E+02,      /* I =153 */
(PID.TID 0000.0001)                -1.337719205490397E+02,      /* I =154 */
(PID.TID 0000.0001)                -1.338128780579019E+02,      /* I =155 */
(PID.TID 0000.0001)                -1.338655466852958E+02,      /* I =156 */
(PID.TID 0000.0001)                -1.339345343098211E+02,      /* I =157 */
(PID.TID 0000.0001)                -1.340279617818807E+02,      /* I =158 */
(PID.TID 0000.0001)                -1.341632092338671E+02,      /* I =159 */
(PID.TID 0000.0001)                -1.343952199476053E+02,      /* I =160 */
(PID.TID 0000.0001)                -1.350000000000000E+02,      /* I =161 */
(PID.TID 0000.0001)                -1.362080546879630E+02,      /* I =162 */
(PID.TID 0000.0001)                -1.378136964251304E+02,      /* I =163 */
(PID.TID 0000.0001)                -1.397176767114393E+02,      /* I =164 */
(PID.TID 0000.0001)                -1.418773831978723E+02,      /* I =165 */
(PID.TID 0000.0001)                -1.442700437147871E+02,      /* I =166 */
(PID.TID 0000.0001)                -1.468812832533406E+02,      /* I =167 */
(PID.TID 0000.0001)                -1.497001816778676E+02,      /* I =168 */
(PID.TID 0000.0001)                -1.527165499179235E+02,      /* I =169 */
(PID.TID 0000.0001)                -1.559191460485302E+02,      /* I =170 */
(PID.TID 0000.0001)                -1.592943927048415E+02,      /* I =171 */
(PID.TID 0000.0001)                -1.628254580761615E+02,      /* I =172 */
(PID.TID 0000.0001)                -1.664916883061893E+02,      /* I =173 */
(PID.TID 0000.0001)                -1.702684280378718E+02,      /* I =174 */
(PID.TID 0000.0001)                -1.741272674312418E+02,      /* I =175 */
(PID.TID 0000.0001)                -1.780367200854751E+02,      /* I =176 */
(PID.TID 0000.0001)                 1.780367200854751E+02,      /* I =177 */
(PID.TID 0000.0001)                 1.741272674312418E+02,      /* I =178 */
(PID.TID 0000.0001)                 1.702684280378718E+02,      /* I =179 */
(PID.TID 0000.0001)                 1.664916883061893E+02,      /* I =180 */
(PID.TID 0000.0001)                 1.628254580761615E+02,      /* I =181 */
(PID.TID 0000.0001)                 1.592943927048415E+02,      /* I =182 */
(PID.TID 0000.0001)                 1.559191460485302E+02,      /* I =183 */
(PID.TID 0000.0001)                 1.527165499179235E+02,      /* I =184 */
(PID.TID 0000.0001)                 1.497001816778676E+02,      /* I =185 */
(PID.TID 0000.0001)                 1.468812832533406E+02,      /* I =186 */
(PID.TID 0000.0001)                 1.442700437147871E+02,      /* I =187 */
(PID.TID 0000.0001)                 1.418773831978723E+02,      /* I =188 */
(PID.TID 0000.0001)                 1.397176767114393E+02,      /* I =189 */
(PID.TID 0000.0001)                 1.378136964251304E+02,      /* I =190 */
(PID.TID 0000.0001)                 1.362080546879630E+02,      /* I =191 */
(PID.TID 0000.0001)                 1.350000000000000E+02       /* I =192 */
(PID.TID 0000.0001)     ;
(PID.TID 0000.0001) ycoord =   /* P-point Y coord ( m - cartesian, degrees - spherical ) */
(PID.TID 0000.0001)                -3.497677942598243E+01,      /* J =  1 */
(PID.TID 0000.0001)                -3.374005967394886E+01,      /* J =  2 */
(PID.TID 0000.0001)                -3.220655175667454E+01,      /* J =  3 */
(PID.TID 0000.0001)                -3.045756348838641E+01,      /* J =  4 */
(PID.TID 0000.0001)                -2.853728129852918E+01,      /* J =  5 */
(PID.TID 0000.0001)                -2.647426640173173E+01,      /* J =  6 */
(PID.TID 0000.0001)                -2.428936657094636E+01,      /* J =  7 */
(PID.TID 0000.0001)                -2.199915808312262E+01,      /* J =  8 */
(PID.TID 0000.0001)                -1.961768597440146E+01,      /* J =  9 */
(PID.TID 0000.0001)                -1.715743888281371E+01,      /* J = 10 */
(PID.TID 0000.0001)                -1.462993396899330E+01,      /* J = 11 */
(PID.TID 0000.0001)                -1.204608340464756E+01,      /* J = 12 */
(PID.TID 0000.0001)                -9.416429130284818E+00,      /* J = 13 */
(PID.TID 0000.0001)                -6.751293662992216E+00,      /* J = 14 */
(PID.TID 0000.0001)                -4.060875511835959E+00,      /* J = 15 */
(PID.TID 0000.0001)                -1.355307764409121E+00,      /* J = 16 */
(PID.TID 0000.0001)                 1.355307764409121E+00,      /* J = 17 */
(PID.TID 0000.0001)                 4.060875511835959E+00,      /* J = 18 */
(PID.TID 0000.0001)                 6.751293662992216E+00,      /* J = 19 */
(PID.TID 0000.0001)                 9.416429130284818E+00,      /* J = 20 */
(PID.TID 0000.0001)                 1.204608340464756E+01,      /* J = 21 */
(PID.TID 0000.0001)                 1.462993396899330E+01,      /* J = 22 */
(PID.TID 0000.0001)                 1.715743888281371E+01,      /* J = 23 */
(PID.TID 0000.0001)                 1.961768597440146E+01,      /* J = 24 */
(PID.TID 0000.0001)                 2.199915808312262E+01,      /* J = 25 */
(PID.TID 0000.0001)                 2.428936657094636E+01,      /* J = 26 */
(PID.TID 0000.0001)                 2.647426640173173E+01,      /* J = 27 */
(PID.TID 0000.0001)                 2.853728129852918E+01,      /* J = 28 */
(PID.TID 0000.0001)                 3.045756348838641E+01,      /* J = 29 */
(PID.TID 0000.0001)                 3.220655175667454E+01,      /* J = 30 */
(PID.TID 0000.0001)                 3.374005967394886E+01,      /* J = 31 */
(PID.TID 0000.0001)                 3.497677942598243E+01       /* J = 32 */
(PID.TID 0000.0001)     ;
(PID.TID 0000.0001) rcoord =   /* P-point R coordinate (  units of r ) */
(PID.TID 0000.0001)                 9.750000000000000E+04,      /* K =  1 */
(PID.TID 0000.0001)                 9.250000000000000E+04,      /* K =  2 */
(PID.TID 0000.0001)                 8.750000000000000E+04,      /* K =  3 */
(PID.TID 0000.0001)                 8.250000000000000E+04,      /* K =  4 */
(PID.TID 0000.0001)                 7.750000000000000E+04,      /* K =  5 */
(PID.TID 0000.0001)                 7.250000000000000E+04,      /* K =  6 */
(PID.TID 0000.0001)                 6.750000000000000E+04,      /* K =  7 */
(PID.TID 0000.0001)                 6.250000000000000E+04,      /* K =  8 */
(PID.TID 0000.0001)                 5.750000000000000E+04,      /* K =  9 */
(PID.TID 0000.0001)                 5.250000000000000E+04,      /* K = 10 */
(PID.TID 0000.0001)                 4.750000000000000E+04,      /* K = 11 */
(PID.TID 0000.0001)                 4.250000000000000E+04,      /* K = 12 */
(PID.TID 0000.0001)                 3.750000000000000E+04,      /* K = 13 */
(PID.TID 0000.0001)                 3.250000000000000E+04,      /* K = 14 */
(PID.TID 0000.0001)                 2.750000000000000E+04,      /* K = 15 */
(PID.TID 0000.0001)                 2.250000000000000E+04,      /* K = 16 */
(PID.TID 0000.0001)                 1.750000000000000E+04,      /* K = 17 */
(PID.TID 0000.0001)                 1.250000000000000E+04,      /* K = 18 */
(PID.TID 0000.0001)                 7.500000000000000E+03,      /* K = 19 */
(PID.TID 0000.0001)                 2.500000000000000E+03       /* K = 20 */
(PID.TID 0000.0001)     ;
(PID.TID 0000.0001) rF =   /* W-Interf. R coordinate (  units of r ) */
(PID.TID 0000.0001)                 1.000000000000000E+05,      /* K =  1 */
(PID.TID 0000.0001)                 9.500000000000000E+04,      /* K =  2 */
(PID.TID 0000.0001)                 9.000000000000000E+04,      /* K =  3 */
(PID.TID 0000.0001)                 8.500000000000000E+04,      /* K =  4 */
(PID.TID 0000.0001)                 8.000000000000000E+04,      /* K =  5 */
(PID.TID 0000.0001)                 7.500000000000000E+04,      /* K =  6 */
(PID.TID 0000.0001)                 7.000000000000000E+04,      /* K =  7 */
(PID.TID 0000.0001)                 6.500000000000000E+04,      /* K =  8 */
(PID.TID 0000.0001)                 6.000000000000000E+04,      /* K =  9 */
(PID.TID 0000.0001)                 5.500000000000000E+04,      /* K = 10 */
(PID.TID 0000.0001)                 5.000000000000000E+04,      /* K = 11 */
(PID.TID 0000.0001)                 4.500000000000000E+04,      /* K = 12 */
(PID.TID 0000.0001)                 4.000000000000000E+04,      /* K = 13 */
(PID.TID 0000.0001)                 3.500000000000000E+04,      /* K = 14 */
(PID.TID 0000.0001)                 3.000000000000000E+04,      /* K = 15 */
(PID.TID 0000.0001)                 2.500000000000000E+04,      /* K = 16 */
(PID.TID 0000.0001)                 2.000000000000000E+04,      /* K = 17 */
(PID.TID 0000.0001)                 1.500000000000000E+04,      /* K = 18 */
(PID.TID 0000.0001)                 1.000000000000000E+04,      /* K = 19 */
(PID.TID 0000.0001)                 5.000000000000000E+03,      /* K = 20 */
(PID.TID 0000.0001)                 0.000000000000000E+00       /* K = 21 */
(PID.TID 0000.0001)     ;
(PID.TID 0000.0001) dxF =  /* dxF(:,1,:,1) ( m - cartesian, degrees - spherical ) */
(PID.TID 0000.0001)                 1.202082051331828E+05,      /* I =  1 */
(PID.TID 0000.0001)                 1.563594089971120E+05,      /* I =  2 */
(PID.TID 0000.0001)                 1.835530058121492E+05,      /* I =  3 */
(PID.TID 0000.0001)                 2.045883481718707E+05,      /* I =  4 */
(PID.TID 0000.0001)                 2.218350349844185E+05,      /* I =  5 */
(PID.TID 0000.0001)                 2.364352994647058E+05,      /* I =  6 */
(PID.TID 0000.0001)                 2.490022710862746E+05,      /* I =  7 */
(PID.TID 0000.0001)                 2.598919724358304E+05,      /* I =  8 */
(PID.TID 0000.0001)                 2.693210245495156E+05,      /* I =  9 */
(PID.TID 0000.0001)                 2.774243179696503E+05,      /* I = 10 */
(PID.TID 0000.0001)                 2.842862532064524E+05,      /* I = 11 */
(PID.TID 0000.0001)                 2.899590699694043E+05,      /* I = 12 */
(PID.TID 0000.0001)                 2.944742915095688E+05,      /* I = 13 */
(PID.TID 0000.0001)                 2.978501920522794E+05,      /* I = 14 */
(PID.TID 0000.0001)                 3.000967749619962E+05,      /* I = 15 */
(PID.TID 0000.0001)     2 @  3.012190981969055E+05,             /* I = 16: 17 */
(PID.TID 0000.0001)                 3.000967749619962E+05,      /* I = 18 */
(PID.TID 0000.0001)                 2.978501920522794E+05,      /* I = 19 */
(PID.TID 0000.0001)                 2.944742915095688E+05,      /* I = 20 */
(PID.TID 0000.0001)                 2.899590699694043E+05,      /* I = 21 */
(PID.TID 0000.0001)                 2.842862532064524E+05,      /* I = 22 */
(PID.TID 0000.0001)                 2.774243179696503E+05,      /* I = 23 */
(PID.TID 0000.0001)                 2.693210245495156E+05,      /* I = 24 */
(PID.TID 0000.0001)                 2.598919724358304E+05,      /* I = 25 */
(PID.TID 0000.0001)                 2.490022710862746E+05,      /* I = 26 */
(PID.TID 0000.0001)                 2.364352994647058E+05,      /* I = 27 */
(PID.TID 0000.0001)                 2.218350349844185E+05,      /* I = 28 */
(PID.TID 0000.0001)                 2.045883481718707E+05,      /* I = 29 */
(PID.TID 0000.0001)                 1.835530058121492E+05,      /* I = 30 */
(PID.TID 0000.0001)                 1.563594089971120E+05,      /* I = 31 */
(PID.TID 0000.0001)     2 @  1.202082051331828E+05,             /* I = 32: 33 */
(PID.TID 0000.0001)                 1.563594089971120E+05,      /* I = 34 */
(PID.TID 0000.0001)                 1.835530058121492E+05,      /* I = 35 */
(PID.TID 0000.0001)                 2.045883481718707E+05,      /* I = 36 */
(PID.TID 0000.0001)                 2.218350349844185E+05,      /* I = 37 */
(PID.TID 0000.0001)                 2.364352994647058E+05,      /* I = 38 */
(PID.TID 0000.0001)                 2.490022710862746E+05,      /* I = 39 */
(PID.TID 0000.0001)                 2.598919724358304E+05,      /* I = 40 */
(PID.TID 0000.0001)                 2.693210245495156E+05,      /* I = 41 */
(PID.TID 0000.0001)                 2.774243179696503E+05,      /* I = 42 */
(PID.TID 0000.0001)                 2.842862532064524E+05,      /* I = 43 */
(PID.TID 0000.0001)                 2.899590699694043E+05,      /* I = 44 */
(PID.TID 0000.0001)                 2.944742915095688E+05,      /* I = 45 */
(PID.TID 0000.0001)                 2.978501920522794E+05,      /* I = 46 */
(PID.TID 0000.0001)                 3.000967749619962E+05,      /* I = 47 */
(PID.TID 0000.0001)     2 @  3.012190981969055E+05,             /* I = 48: 49 */
(PID.TID 0000.0001)                 3.000967749619962E+05,      /* I = 50 */
(PID.TID 0000.0001)                 2.978501920522794E+05,      /* I = 51 */
(PID.TID 0000.0001)                 2.944742915095688E+05,      /* I = 52 */
(PID.TID 0000.0001)                 2.899590699694043E+05,      /* I = 53 */
(PID.TID 0000.0001)                 2.842862532064524E+05,      /* I = 54 */
(PID.TID 0000.0001)                 2.774243179696503E+05,      /* I = 55 */
(PID.TID 0000.0001)                 2.693210245495156E+05,      /* I = 56 */
(PID.TID 0000.0001)                 2.598919724358304E+05,      /* I = 57 */
(PID.TID 0000.0001)                 2.490022710862746E+05,      /* I = 58 */
(PID.TID 0000.0001)                 2.364352994647058E+05,      /* I = 59 */
(PID.TID 0000.0001)                 2.218350349844185E+05,      /* I = 60 */
(PID.TID 0000.0001)                 2.045883481718707E+05,      /* I = 61 */
(PID.TID 0000.0001)                 1.835530058121492E+05,      /* I = 62 */
(PID.TID 0000.0001)                 1.563594089971120E+05,      /* I = 63 */
(PID.TID 0000.0001)     2 @  1.202082051331828E+05,             /* I = 64: 65 */
(PID.TID 0000.0001)                 1.563594089971120E+05,      /* I = 66 */
(PID.TID 0000.0001)                 1.835530058121492E+05,      /* I = 67 */
(PID.TID 0000.0001)                 2.045883481718707E+05,      /* I = 68 */
(PID.TID 0000.0001)                 2.218350349844185E+05,      /* I = 69 */
(PID.TID 0000.0001)                 2.364352994647058E+05,      /* I = 70 */
(PID.TID 0000.0001)                 2.490022710862746E+05,      /* I = 71 */
(PID.TID 0000.0001)                 2.598919724358304E+05,      /* I = 72 */
(PID.TID 0000.0001)                 2.693210245495156E+05,      /* I = 73 */
(PID.TID 0000.0001)                 2.774243179696503E+05,      /* I = 74 */
(PID.TID 0000.0001)                 2.842862532064524E+05,      /* I = 75 */
(PID.TID 0000.0001)                 2.899590699694043E+05,      /* I = 76 */
(PID.TID 0000.0001)                 2.944742915095688E+05,      /* I = 77 */
(PID.TID 0000.0001)                 2.978501920522794E+05,      /* I = 78 */
(PID.TID 0000.0001)                 3.000967749619962E+05,      /* I = 79 */
(PID.TID 0000.0001)     2 @  3.012190981969055E+05,             /* I = 80: 81 */
(PID.TID 0000.0001)                 3.000967749619962E+05,      /* I = 82 */
(PID.TID 0000.0001)                 2.978501920522794E+05,      /* I = 83 */
(PID.TID 0000.0001)                 2.944742915095688E+05,      /* I = 84 */
(PID.TID 0000.0001)                 2.899590699694043E+05,      /* I = 85 */
(PID.TID 0000.0001)                 2.842862532064524E+05,      /* I = 86 */
(PID.TID 0000.0001)                 2.774243179696503E+05,      /* I = 87 */
(PID.TID 0000.0001)                 2.693210245495156E+05,      /* I = 88 */
(PID.TID 0000.0001)                 2.598919724358304E+05,      /* I = 89 */
(PID.TID 0000.0001)                 2.490022710862746E+05,      /* I = 90 */
(PID.TID 0000.0001)                 2.364352994647058E+05,      /* I = 91 */
(PID.TID 0000.0001)                 2.218350349844185E+05,      /* I = 92 */
(PID.TID 0000.0001)                 2.045883481718707E+05,      /* I = 93 */
(PID.TID 0000.0001)                 1.835530058121492E+05,      /* I = 94 */
(PID.TID 0000.0001)                 1.563594089971120E+05,      /* I = 95 */
(PID.TID 0000.0001)     2 @  1.202082051331828E+05,             /* I = 96: 97 */
(PID.TID 0000.0001)                 1.563594089971120E+05,      /* I = 98 */
(PID.TID 0000.0001)                 1.835530058121492E+05,      /* I = 99 */
(PID.TID 0000.0001)                 2.045883481718707E+05,      /* I =100 */
(PID.TID 0000.0001)                 2.218350349844185E+05,      /* I =101 */
(PID.TID 0000.0001)                 2.364352994647058E+05,      /* I =102 */
(PID.TID 0000.0001)                 2.490022710862746E+05,      /* I =103 */
(PID.TID 0000.0001)                 2.598919724358304E+05,      /* I =104 */
(PID.TID 0000.0001)                 2.693210245495156E+05,      /* I =105 */
(PID.TID 0000.0001)                 2.774243179696503E+05,      /* I =106 */
(PID.TID 0000.0001)                 2.842862532064524E+05,      /* I =107 */
(PID.TID 0000.0001)                 2.899590699694043E+05,      /* I =108 */
(PID.TID 0000.0001)                 2.944742915095688E+05,      /* I =109 */
(PID.TID 0000.0001)                 2.978501920522794E+05,      /* I =110 */
(PID.TID 0000.0001)                 3.000967749619962E+05,      /* I =111 */
(PID.TID 0000.0001)     2 @  3.012190981969055E+05,             /* I =112:113 */
(PID.TID 0000.0001)                 3.000967749619962E+05,      /* I =114 */
(PID.TID 0000.0001)                 2.978501920522794E+05,      /* I =115 */
(PID.TID 0000.0001)                 2.944742915095688E+05,      /* I =116 */
(PID.TID 0000.0001)                 2.899590699694043E+05,      /* I =117 */
(PID.TID 0000.0001)                 2.842862532064524E+05,      /* I =118 */
(PID.TID 0000.0001)                 2.774243179696503E+05,      /* I =119 */
(PID.TID 0000.0001)                 2.693210245495156E+05,      /* I =120 */
(PID.TID 0000.0001)                 2.598919724358304E+05,      /* I =121 */
(PID.TID 0000.0001)                 2.490022710862746E+05,      /* I =122 */
(PID.TID 0000.0001)                 2.364352994647058E+05,      /* I =123 */
(PID.TID 0000.0001)                 2.218350349844185E+05,      /* I =124 */
(PID.TID 0000.0001)                 2.045883481718707E+05,      /* I =125 */
(PID.TID 0000.0001)                 1.835530058121492E+05,      /* I =126 */
(PID.TID 0000.0001)                 1.563594089971120E+05,      /* I =127 */
(PID.TID 0000.0001)     2 @  1.202082051331828E+05,             /* I =128:129 */
(PID.TID 0000.0001)                 1.563594089971120E+05,      /* I =130 */
(PID.TID 0000.0001)                 1.835530058121492E+05,      /* I =131 */
(PID.TID 0000.0001)                 2.045883481718707E+05,      /* I =132 */
(PID.TID 0000.0001)                 2.218350349844185E+05,      /* I =133 */
(PID.TID 0000.0001)                 2.364352994647058E+05,      /* I =134 */
(PID.TID 0000.0001)                 2.490022710862746E+05,      /* I =135 */
(PID.TID 0000.0001)                 2.598919724358304E+05,      /* I =136 */
(PID.TID 0000.0001)                 2.693210245495156E+05,      /* I =137 */
(PID.TID 0000.0001)                 2.774243179696503E+05,      /* I =138 */
(PID.TID 0000.0001)                 2.842862532064524E+05,      /* I =139 */
(PID.TID 0000.0001)                 2.899590699694043E+05,      /* I =140 */
(PID.TID 0000.0001)                 2.944742915095688E+05,      /* I =141 */
(PID.TID 0000.0001)                 2.978501920522794E+05,      /* I =142 */
(PID.TID 0000.0001)                 3.000967749619962E+05,      /* I =143 */
(PID.TID 0000.0001)     2 @  3.012190981969055E+05,             /* I =144:145 */
(PID.TID 0000.0001)                 3.000967749619962E+05,      /* I =146 */
(PID.TID 0000.0001)                 2.978501920522794E+05,      /* I =147 */
(PID.TID 0000.0001)                 2.944742915095688E+05,      /* I =148 */
(PID.TID 0000.0001)                 2.899590699694043E+05,      /* I =149 */
(PID.TID 0000.0001)                 2.842862532064524E+05,      /* I =150 */
(PID.TID 0000.0001)                 2.774243179696503E+05,      /* I =151 */
(PID.TID 0000.0001)                 2.693210245495156E+05,      /* I =152 */
(PID.TID 0000.0001)                 2.598919724358304E+05,      /* I =153 */
(PID.TID 0000.0001)                 2.490022710862746E+05,      /* I =154 */
(PID.TID 0000.0001)                 2.364352994647058E+05,      /* I =155 */
(PID.TID 0000.0001)                 2.218350349844185E+05,      /* I =156 */
(PID.TID 0000.0001)                 2.045883481718707E+05,      /* I =157 */
(PID.TID 0000.0001)                 1.835530058121492E+05,      /* I =158 */
(PID.TID 0000.0001)                 1.563594089971120E+05,      /* I =159 */
(PID.TID 0000.0001)     2 @  1.202082051331828E+05,             /* I =160:161 */
(PID.TID 0000.0001)                 1.563594089971120E+05,      /* I =162 */
(PID.TID 0000.0001)                 1.835530058121492E+05,      /* I =163 */
(PID.TID 0000.0001)                 2.045883481718707E+05,      /* I =164 */
(PID.TID 0000.0001)                 2.218350349844185E+05,      /* I =165 */
(PID.TID 0000.0001)                 2.364352994647058E+05,      /* I =166 */
(PID.TID 0000.0001)                 2.490022710862746E+05,      /* I =167 */
(PID.TID 0000.0001)                 2.598919724358304E+05,      /* I =168 */
(PID.TID 0000.0001)                 2.693210245495156E+05,      /* I =169 */
(PID.TID 0000.0001)                 2.774243179696503E+05,      /* I =170 */
(PID.TID 0000.0001)                 2.842862532064524E+05,      /* I =171 */
(PID.TID 0000.0001)                 2.899590699694043E+05,      /* I =172 */
(PID.TID 0000.0001)                 2.944742915095688E+05,      /* I =173 */
(PID.TID 0000.0001)                 2.978501920522794E+05,      /* I =174 */
(PID.TID 0000.0001)                 3.000967749619962E+05,      /* I =175 */
(PID.TID 0000.0001)     2 @  3.012190981969055E+05,             /* I =176:177 */
(PID.TID 0000.0001)                 3.000967749619962E+05,      /* I =178 */
(PID.TID 0000.0001)                 2.978501920522794E+05,      /* I =179 */
(PID.TID 0000.0001)                 2.944742915095688E+05,      /* I =180 */
(PID.TID 0000.0001)                 2.899590699694043E+05,      /* I =181 */
(PID.TID 0000.0001)                 2.842862532064524E+05,      /* I =182 */
(PID.TID 0000.0001)                 2.774243179696503E+05,      /* I =183 */
(PID.TID 0000.0001)                 2.693210245495156E+05,      /* I =184 */
(PID.TID 0000.0001)                 2.598919724358304E+05,      /* I =185 */
(PID.TID 0000.0001)                 2.490022710862746E+05,      /* I =186 */
(PID.TID 0000.0001)                 2.364352994647058E+05,      /* I =187 */
(PID.TID 0000.0001)                 2.218350349844185E+05,      /* I =188 */
(PID.TID 0000.0001)                 2.045883481718707E+05,      /* I =189 */
(PID.TID 0000.0001)                 1.835530058121492E+05,      /* I =190 */
(PID.TID 0000.0001)                 1.563594089971120E+05,      /* I =191 */
(PID.TID 0000.0001)                 1.202082051331828E+05       /* I =192 */
(PID.TID 0000.0001)     ;
(PID.TID 0000.0001) dxF =  /* dxF(1,:,1,:) ( m - cartesian, degrees - spherical ) */
(PID.TID 0000.0001)                 1.202082051331828E+05,      /* J =  1 */
(PID.TID 0000.0001)                 1.572908084538706E+05,      /* J =  2 */
(PID.TID 0000.0001)                 1.840412227747703E+05,      /* J =  3 */
(PID.TID 0000.0001)                 2.048868197919576E+05,      /* J =  4 */
(PID.TID 0000.0001)                 2.220405216043041E+05,      /* J =  5 */
(PID.TID 0000.0001)                 2.365892017348392E+05,      /* J =  6 */
(PID.TID 0000.0001)                 2.491250781852558E+05,      /* J =  7 */
(PID.TID 0000.0001)                 2.599949918261881E+05,      /* J =  8 */
(PID.TID 0000.0001)                 2.694110134598581E+05,      /* J =  9 */
(PID.TID 0000.0001)                 2.775055554645015E+05,      /* J = 10 */
(PID.TID 0000.0001)                 2.843615645344775E+05,      /* J = 11 */
(PID.TID 0000.0001)                 2.900303768613599E+05,      /* J = 12 */
(PID.TID 0000.0001)                 2.945429307892709E+05,      /* J = 13 */
(PID.TID 0000.0001)                 2.979171143158405E+05,      /* J = 14 */
(PID.TID 0000.0001)                 3.001626787528886E+05,      /* J = 15 */
(PID.TID 0000.0001)     2 @  3.012844832048790E+05,             /* J = 16: 17 */
(PID.TID 0000.0001)                 3.001626787528886E+05,      /* J = 18 */
(PID.TID 0000.0001)                 2.979171143158405E+05,      /* J = 19 */
(PID.TID 0000.0001)                 2.945429307892709E+05,      /* J = 20 */
(PID.TID 0000.0001)                 2.900303768613599E+05,      /* J = 21 */
(PID.TID 0000.0001)                 2.843615645344775E+05,      /* J = 22 */
(PID.TID 0000.0001)                 2.775055554645015E+05,      /* J = 23 */
(PID.TID 0000.0001)                 2.694110134598581E+05,      /* J = 24 */
(PID.TID 0000.0001)                 2.599949918261881E+05,      /* J = 25 */
(PID.TID 0000.0001)                 2.491250781852558E+05,      /* J = 26 */
(PID.TID 0000.0001)                 2.365892017348392E+05,      /* J = 27 */
(PID.TID 0000.0001)                 2.220405216043041E+05,      /* J = 28 */
(PID.TID 0000.0001)                 2.048868197919576E+05,      /* J = 29 */
(PID.TID 0000.0001)                 1.840412227747703E+05,      /* J = 30 */
(PID.TID 0000.0001)                 1.572908084538706E+05,      /* J = 31 */
(PID.TID 0000.0001)                 1.202082051331828E+05       /* J = 32 */
(PID.TID 0000.0001)     ;
(PID.TID 0000.0001) dyF =  /* dyF(:,1,:,1) ( m - cartesian, degrees - spherical ) */
(PID.TID 0000.0001)                 1.202082051331828E+05,      /* I =  1 */
(PID.TID 0000.0001)                 1.572908084538706E+05,      /* I =  2 */
(PID.TID 0000.0001)                 1.840412227747703E+05,      /* I =  3 */
(PID.TID 0000.0001)                 2.048868197919576E+05,      /* I =  4 */
(PID.TID 0000.0001)                 2.220405216043041E+05,      /* I =  5 */
(PID.TID 0000.0001)                 2.365892017348392E+05,      /* I =  6 */
(PID.TID 0000.0001)                 2.491250781852558E+05,      /* I =  7 */
(PID.TID 0000.0001)                 2.599949918261881E+05,      /* I =  8 */
(PID.TID 0000.0001)                 2.694110134598581E+05,      /* I =  9 */
(PID.TID 0000.0001)                 2.775055554645015E+05,      /* I = 10 */
(PID.TID 0000.0001)                 2.843615645344775E+05,      /* I = 11 */
(PID.TID 0000.0001)                 2.900303768613599E+05,      /* I = 12 */
(PID.TID 0000.0001)                 2.945429307892709E+05,      /* I = 13 */
(PID.TID 0000.0001)                 2.979171143158405E+05,      /* I = 14 */
(PID.TID 0000.0001)                 3.001626787528886E+05,      /* I = 15 */
(PID.TID 0000.0001)     2 @  3.012844832048790E+05,             /* I = 16: 17 */
(PID.TID 0000.0001)                 3.001626787528886E+05,      /* I = 18 */
(PID.TID 0000.0001)                 2.979171143158405E+05,      /* I = 19 */
(PID.TID 0000.0001)                 2.945429307892709E+05,      /* I = 20 */
(PID.TID 0000.0001)                 2.900303768613599E+05,      /* I = 21 */
(PID.TID 0000.0001)                 2.843615645344775E+05,      /* I = 22 */
(PID.TID 0000.0001)                 2.775055554645015E+05,      /* I = 23 */
(PID.TID 0000.0001)                 2.694110134598581E+05,      /* I = 24 */
(PID.TID 0000.0001)                 2.599949918261881E+05,      /* I = 25 */
(PID.TID 0000.0001)                 2.491250781852558E+05,      /* I = 26 */
(PID.TID 0000.0001)                 2.365892017348392E+05,      /* I = 27 */
(PID.TID 0000.0001)                 2.220405216043041E+05,      /* I = 28 */
(PID.TID 0000.0001)                 2.048868197919576E+05,      /* I = 29 */
(PID.TID 0000.0001)                 1.840412227747703E+05,      /* I = 30 */
(PID.TID 0000.0001)                 1.572908084538706E+05,      /* I = 31 */
(PID.TID 0000.0001)     2 @  1.202082051331828E+05,             /* I = 32: 33 */
(PID.TID 0000.0001)                 1.572908084538706E+05,      /* I = 34 */
(PID.TID 0000.0001)                 1.840412227747703E+05,      /* I = 35 */
(PID.TID 0000.0001)                 2.048868197919576E+05,      /* I = 36 */
(PID.TID 0000.0001)                 2.220405216043041E+05,      /* I = 37 */
(PID.TID 0000.0001)                 2.365892017348392E+05,      /* I = 38 */
(PID.TID 0000.0001)                 2.491250781852558E+05,      /* I = 39 */
(PID.TID 0000.0001)                 2.599949918261881E+05,      /* I = 40 */
(PID.TID 0000.0001)                 2.694110134598581E+05,      /* I = 41 */
(PID.TID 0000.0001)                 2.775055554645015E+05,      /* I = 42 */
(PID.TID 0000.0001)                 2.843615645344775E+05,      /* I = 43 */
(PID.TID 0000.0001)                 2.900303768613599E+05,      /* I = 44 */
(PID.TID 0000.0001)                 2.945429307892709E+05,      /* I = 45 */
(PID.TID 0000.0001)                 2.979171143158405E+05,      /* I = 46 */
(PID.TID 0000.0001)                 3.001626787528886E+05,      /* I = 47 */
(PID.TID 0000.0001)     2 @  3.012844832048790E+05,             /* I = 48: 49 */
(PID.TID 0000.0001)                 3.001626787528886E+05,      /* I = 50 */
(PID.TID 0000.0001)                 2.979171143158405E+05,      /* I = 51 */
(PID.TID 0000.0001)                 2.945429307892709E+05,      /* I = 52 */
(PID.TID 0000.0001)                 2.900303768613599E+05,      /* I = 53 */
(PID.TID 0000.0001)                 2.843615645344775E+05,      /* I = 54 */
(PID.TID 0000.0001)                 2.775055554645015E+05,      /* I = 55 */
(PID.TID 0000.0001)                 2.694110134598581E+05,      /* I = 56 */
(PID.TID 0000.0001)                 2.599949918261881E+05,      /* I = 57 */
(PID.TID 0000.0001)                 2.491250781852558E+05,      /* I = 58 */
(PID.TID 0000.0001)                 2.365892017348392E+05,      /* I = 59 */
(PID.TID 0000.0001)                 2.220405216043041E+05,      /* I = 60 */
(PID.TID 0000.0001)                 2.048868197919576E+05,      /* I = 61 */
(PID.TID 0000.0001)                 1.840412227747703E+05,      /* I = 62 */
(PID.TID 0000.0001)                 1.572908084538706E+05,      /* I = 63 */
(PID.TID 0000.0001)     2 @  1.202082051331828E+05,             /* I = 64: 65 */
(PID.TID 0000.0001)                 1.572908084538706E+05,      /* I = 66 */
(PID.TID 0000.0001)                 1.840412227747703E+05,      /* I = 67 */
(PID.TID 0000.0001)                 2.048868197919576E+05,      /* I = 68 */
(PID.TID 0000.0001)                 2.220405216043041E+05,      /* I = 69 */
(PID.TID 0000.0001)                 2.365892017348392E+05,      /* I = 70 */
(PID.TID 0000.0001)                 2.491250781852558E+05,      /* I = 71 */
(PID.TID 0000.0001)                 2.599949918261881E+05,      /* I = 72 */
(PID.TID 0000.0001)                 2.694110134598581E+05,      /* I = 73 */
(PID.TID 0000.0001)                 2.775055554645015E+05,      /* I = 74 */
(PID.TID 0000.0001)                 2.843615645344775E+05,      /* I = 75 */
(PID.TID 0000.0001)                 2.900303768613599E+05,      /* I = 76 */
(PID.TID 0000.0001)                 2.945429307892709E+05,      /* I = 77 */
(PID.TID 0000.0001)                 2.979171143158405E+05,      /* I = 78 */
(PID.TID 0000.0001)                 3.001626787528886E+05,      /* I = 79 */
(PID.TID 0000.0001)     2 @  3.012844832048790E+05,             /* I = 80: 81 */
(PID.TID 0000.0001)                 3.001626787528886E+05,      /* I = 82 */
(PID.TID 0000.0001)                 2.979171143158405E+05,      /* I = 83 */
(PID.TID 0000.0001)                 2.945429307892709E+05,      /* I = 84 */
(PID.TID 0000.0001)                 2.900303768613599E+05,      /* I = 85 */
(PID.TID 0000.0001)                 2.843615645344775E+05,      /* I = 86 */
(PID.TID 0000.0001)                 2.775055554645015E+05,      /* I = 87 */
(PID.TID 0000.0001)                 2.694110134598581E+05,      /* I = 88 */
(PID.TID 0000.0001)                 2.599949918261881E+05,      /* I = 89 */
(PID.TID 0000.0001)                 2.491250781852558E+05,      /* I = 90 */
(PID.TID 0000.0001)                 2.365892017348392E+05,      /* I = 91 */
(PID.TID 0000.0001)                 2.220405216043041E+05,      /* I = 92 */
(PID.TID 0000.0001)                 2.048868197919576E+05,      /* I = 93 */
(PID.TID 0000.0001)                 1.840412227747703E+05,      /* I = 94 */
(PID.TID 0000.0001)                 1.572908084538706E+05,      /* I = 95 */
(PID.TID 0000.0001)     2 @  1.202082051331828E+05,             /* I = 96: 97 */
(PID.TID 0000.0001)                 1.572908084538706E+05,      /* I = 98 */
(PID.TID 0000.0001)                 1.840412227747703E+05,      /* I = 99 */
(PID.TID 0000.0001)                 2.048868197919576E+05,      /* I =100 */
(PID.TID 0000.0001)                 2.220405216043041E+05,      /* I =101 */
(PID.TID 0000.0001)                 2.365892017348392E+05,      /* I =102 */
(PID.TID 0000.0001)                 2.491250781852558E+05,      /* I =103 */
(PID.TID 0000.0001)                 2.599949918261881E+05,      /* I =104 */
(PID.TID 0000.0001)                 2.694110134598581E+05,      /* I =105 */
(PID.TID 0000.0001)                 2.775055554645015E+05,      /* I =106 */
(PID.TID 0000.0001)                 2.843615645344775E+05,      /* I =107 */
(PID.TID 0000.0001)                 2.900303768613599E+05,      /* I =108 */
(PID.TID 0000.0001)                 2.945429307892709E+05,      /* I =109 */
(PID.TID 0000.0001)                 2.979171143158405E+05,      /* I =110 */
(PID.TID 0000.0001)                 3.001626787528886E+05,      /* I =111 */
(PID.TID 0000.0001)     2 @  3.012844832048790E+05,             /* I =112:113 */
(PID.TID 0000.0001)                 3.001626787528886E+05,      /* I =114 */
(PID.TID 0000.0001)                 2.979171143158405E+05,      /* I =115 */
(PID.TID 0000.0001)                 2.945429307892709E+05,      /* I =116 */
(PID.TID 0000.0001)                 2.900303768613599E+05,      /* I =117 */
(PID.TID 0000.0001)                 2.843615645344775E+05,      /* I =118 */
(PID.TID 0000.0001)                 2.775055554645015E+05,      /* I =119 */
(PID.TID 0000.0001)                 2.694110134598581E+05,      /* I =120 */
(PID.TID 0000.0001)                 2.599949918261881E+05,      /* I =121 */
(PID.TID 0000.0001)                 2.491250781852558E+05,      /* I =122 */
(PID.TID 0000.0001)                 2.365892017348392E+05,      /* I =123 */
(PID.TID 0000.0001)                 2.220405216043041E+05,      /* I =124 */
(PID.TID 0000.0001)                 2.048868197919576E+05,      /* I =125 */
(PID.TID 0000.0001)                 1.840412227747703E+05,      /* I =126 */
(PID.TID 0000.0001)                 1.572908084538706E+05,      /* I =127 */
(PID.TID 0000.0001)     2 @  1.202082051331828E+05,             /* I =128:129 */
(PID.TID 0000.0001)                 1.572908084538706E+05,      /* I =130 */
(PID.TID 0000.0001)                 1.840412227747703E+05,      /* I =131 */
(PID.TID 0000.0001)                 2.048868197919576E+05,      /* I =132 */
(PID.TID 0000.0001)                 2.220405216043041E+05,      /* I =133 */
(PID.TID 0000.0001)                 2.365892017348392E+05,      /* I =134 */
(PID.TID 0000.0001)                 2.491250781852558E+05,      /* I =135 */
(PID.TID 0000.0001)                 2.599949918261881E+05,      /* I =136 */
(PID.TID 0000.0001)                 2.694110134598581E+05,      /* I =137 */
(PID.TID 0000.0001)                 2.775055554645015E+05,      /* I =138 */
(PID.TID 0000.0001)                 2.843615645344775E+05,      /* I =139 */
(PID.TID 0000.0001)                 2.900303768613599E+05,      /* I =140 */
(PID.TID 0000.0001)                 2.945429307892709E+05,      /* I =141 */
(PID.TID 0000.0001)                 2.979171143158405E+05,      /* I =142 */
(PID.TID 0000.0001)                 3.001626787528886E+05,      /* I =143 */
(PID.TID 0000.0001)     2 @  3.012844832048790E+05,             /* I =144:145 */
(PID.TID 0000.0001)                 3.001626787528886E+05,      /* I =146 */
(PID.TID 0000.0001)                 2.979171143158405E+05,      /* I =147 */
(PID.TID 0000.0001)                 2.945429307892709E+05,      /* I =148 */
(PID.TID 0000.0001)                 2.900303768613599E+05,      /* I =149 */
(PID.TID 0000.0001)                 2.843615645344775E+05,      /* I =150 */
(PID.TID 0000.0001)                 2.775055554645015E+05,      /* I =151 */
(PID.TID 0000.0001)                 2.694110134598581E+05,      /* I =152 */
(PID.TID 0000.0001)                 2.599949918261881E+05,      /* I =153 */
(PID.TID 0000.0001)                 2.491250781852558E+05,      /* I =154 */
(PID.TID 0000.0001)                 2.365892017348392E+05,      /* I =155 */
(PID.TID 0000.0001)                 2.220405216043041E+05,      /* I =156 */
(PID.TID 0000.0001)                 2.048868197919576E+05,      /* I =157 */
(PID.TID 0000.0001)                 1.840412227747703E+05,      /* I =158 */
(PID.TID 0000.0001)                 1.572908084538706E+05,      /* I =159 */
(PID.TID 0000.0001)     2 @  1.202082051331828E+05,             /* I =160:161 */
(PID.TID 0000.0001)                 1.572908084538706E+05,      /* I =162 */
(PID.TID 0000.0001)                 1.840412227747703E+05,      /* I =163 */
(PID.TID 0000.0001)                 2.048868197919576E+05,      /* I =164 */
(PID.TID 0000.0001)                 2.220405216043041E+05,      /* I =165 */
(PID.TID 0000.0001)                 2.365892017348392E+05,      /* I =166 */
(PID.TID 0000.0001)                 2.491250781852558E+05,      /* I =167 */
(PID.TID 0000.0001)                 2.599949918261881E+05,      /* I =168 */
(PID.TID 0000.0001)                 2.694110134598581E+05,      /* I =169 */
(PID.TID 0000.0001)                 2.775055554645015E+05,      /* I =170 */
(PID.TID 0000.0001)                 2.843615645344775E+05,      /* I =171 */
(PID.TID 0000.0001)                 2.900303768613599E+05,      /* I =172 */
(PID.TID 0000.0001)                 2.945429307892709E+05,      /* I =173 */
(PID.TID 0000.0001)                 2.979171143158405E+05,      /* I =174 */
(PID.TID 0000.0001)                 3.001626787528886E+05,      /* I =175 */
(PID.TID 0000.0001)     2 @  3.012844832048790E+05,             /* I =176:177 */
(PID.TID 0000.0001)                 3.001626787528886E+05,      /* I =178 */
(PID.TID 0000.0001)                 2.979171143158405E+05,      /* I =179 */
(PID.TID 0000.0001)                 2.945429307892709E+05,      /* I =180 */
(PID.TID 0000.0001)                 2.900303768613599E+05,      /* I =181 */
(PID.TID 0000.0001)                 2.843615645344775E+05,      /* I =182 */
(PID.TID 0000.0001)                 2.775055554645015E+05,      /* I =183 */
(PID.TID 0000.0001)                 2.694110134598581E+05,      /* I =184 */
(PID.TID 0000.0001)                 2.599949918261881E+05,      /* I =185 */
(PID.TID 0000.0001)                 2.491250781852558E+05,      /* I =186 */
(PID.TID 0000.0001)                 2.365892017348392E+05,      /* I =187 */
(PID.TID 0000.0001)                 2.220405216043041E+05,      /* I =188 */
(PID.TID 0000.0001)                 2.048868197919576E+05,      /* I =189 */
(PID.TID 0000.0001)                 1.840412227747703E+05,      /* I =190 */
(PID.TID 0000.0001)                 1.572908084538706E+05,      /* I =191 */
(PID.TID 0000.0001)                 1.202082051331828E+05       /* I =192 */
(PID.TID 0000.0001)     ;
(PID.TID 0000.0001) dyF =  /* dyF(1,:,1,:) ( m - cartesian, degrees - spherical ) */
(PID.TID 0000.0001)                 1.202082051331828E+05,      /* J =  1 */
(PID.TID 0000.0001)                 1.563594089971120E+05,      /* J =  2 */
(PID.TID 0000.0001)                 1.835530058121492E+05,      /* J =  3 */
(PID.TID 0000.0001)                 2.045883481718707E+05,      /* J =  4 */
(PID.TID 0000.0001)                 2.218350349844185E+05,      /* J =  5 */
(PID.TID 0000.0001)                 2.364352994647058E+05,      /* J =  6 */
(PID.TID 0000.0001)                 2.490022710862746E+05,      /* J =  7 */
(PID.TID 0000.0001)                 2.598919724358304E+05,      /* J =  8 */
(PID.TID 0000.0001)                 2.693210245495156E+05,      /* J =  9 */
(PID.TID 0000.0001)                 2.774243179696503E+05,      /* J = 10 */
(PID.TID 0000.0001)                 2.842862532064524E+05,      /* J = 11 */
(PID.TID 0000.0001)                 2.899590699694043E+05,      /* J = 12 */
(PID.TID 0000.0001)                 2.944742915095688E+05,      /* J = 13 */
(PID.TID 0000.0001)                 2.978501920522794E+05,      /* J = 14 */
(PID.TID 0000.0001)                 3.000967749619962E+05,      /* J = 15 */
(PID.TID 0000.0001)     2 @  3.012190981969055E+05,             /* J = 16: 17 */
(PID.TID 0000.0001)                 3.000967749619962E+05,      /* J = 18 */
(PID.TID 0000.0001)                 2.978501920522794E+05,      /* J = 19 */
(PID.TID 0000.0001)                 2.944742915095688E+05,      /* J = 20 */
(PID.TID 0000.0001)                 2.899590699694043E+05,      /* J = 21 */
(PID.TID 0000.0001)                 2.842862532064524E+05,      /* J = 22 */
(PID.TID 0000.0001)                 2.774243179696503E+05,      /* J = 23 */
(PID.TID 0000.0001)                 2.693210245495156E+05,      /* J = 24 */
(PID.TID 0000.0001)                 2.598919724358304E+05,      /* J = 25 */
(PID.TID 0000.0001)                 2.490022710862746E+05,      /* J = 26 */
(PID.TID 0000.0001)                 2.364352994647058E+05,      /* J = 27 */
(PID.TID 0000.0001)                 2.218350349844185E+05,      /* J = 28 */
(PID.TID 0000.0001)                 2.045883481718707E+05,      /* J = 29 */
(PID.TID 0000.0001)                 1.835530058121492E+05,      /* J = 30 */
(PID.TID 0000.0001)                 1.563594089971120E+05,      /* J = 31 */
(PID.TID 0000.0001)                 1.202082051331828E+05       /* J = 32 */
(PID.TID 0000.0001)     ;
(PID.TID 0000.0001) dxG =  /* dxG(:,1,:,1) ( m - cartesian, degrees - spherical ) */
(PID.TID 0000.0001)                 1.009837800879055E+05,      /* I =  1 */
(PID.TID 0000.0001)                 1.534505834330338E+05,      /* I =  2 */
(PID.TID 0000.0001)                 1.823321598773926E+05,      /* I =  3 */
(PID.TID 0000.0001)                 2.038999045536999E+05,      /* I =  4 */
(PID.TID 0000.0001)                 2.213884732245467E+05,      /* I =  5 */
(PID.TID 0000.0001)                 2.361211699596122E+05,      /* I =  6 */
(PID.TID 0000.0001)                 2.487693460283865E+05,      /* I =  7 */
(PID.TID 0000.0001)                 2.597126963772147E+05,      /* I =  8 */
(PID.TID 0000.0001)                 2.691790288994575E+05,      /* I =  9 */
(PID.TID 0000.0001)                 2.773091043277394E+05,      /* I = 10 */
(PID.TID 0000.0001)                 2.841906470085516E+05,      /* I = 11 */
(PID.TID 0000.0001)                 2.898778860929753E+05,      /* I = 12 */
(PID.TID 0000.0001)                 2.944035815526416E+05,      /* I = 13 */
(PID.TID 0000.0001)                 2.977867909042096E+05,      /* I = 14 */
(PID.TID 0000.0001)                 3.000380090330854E+05,      /* I = 15 */
(PID.TID 0000.0001)     2 @  3.011625828699101E+05,             /* I = 16: 17 */
(PID.TID 0000.0001)                 3.000380090330854E+05,      /* I = 18 */
(PID.TID 0000.0001)                 2.977867909042096E+05,      /* I = 19 */
(PID.TID 0000.0001)                 2.944035815526416E+05,      /* I = 20 */
(PID.TID 0000.0001)                 2.898778860929753E+05,      /* I = 21 */
(PID.TID 0000.0001)                 2.841906470085516E+05,      /* I = 22 */
(PID.TID 0000.0001)                 2.773091043277394E+05,      /* I = 23 */
(PID.TID 0000.0001)                 2.691790288994575E+05,      /* I = 24 */
(PID.TID 0000.0001)                 2.597126963772147E+05,      /* I = 25 */
(PID.TID 0000.0001)                 2.487693460283865E+05,      /* I = 26 */
(PID.TID 0000.0001)                 2.361211699596122E+05,      /* I = 27 */
(PID.TID 0000.0001)                 2.213884732245467E+05,      /* I = 28 */
(PID.TID 0000.0001)                 2.038999045536999E+05,      /* I = 29 */
(PID.TID 0000.0001)                 1.823321598773926E+05,      /* I = 30 */
(PID.TID 0000.0001)                 1.534505834330338E+05,      /* I = 31 */
(PID.TID 0000.0001)     2 @  1.009837800879055E+05,             /* I = 32: 33 */
(PID.TID 0000.0001)                 1.534505834330338E+05,      /* I = 34 */
(PID.TID 0000.0001)                 1.823321598773926E+05,      /* I = 35 */
(PID.TID 0000.0001)                 2.038999045536999E+05,      /* I = 36 */
(PID.TID 0000.0001)                 2.213884732245467E+05,      /* I = 37 */
(PID.TID 0000.0001)                 2.361211699596122E+05,      /* I = 38 */
(PID.TID 0000.0001)                 2.487693460283865E+05,      /* I = 39 */
(PID.TID 0000.0001)                 2.597126963772147E+05,      /* I = 40 */
(PID.TID 0000.0001)                 2.691790288994575E+05,      /* I = 41 */
(PID.TID 0000.0001)                 2.773091043277394E+05,      /* I = 42 */
(PID.TID 0000.0001)                 2.841906470085516E+05,      /* I = 43 */
(PID.TID 0000.0001)                 2.898778860929753E+05,      /* I = 44 */
(PID.TID 0000.0001)                 2.944035815526416E+05,      /* I = 45 */
(PID.TID 0000.0001)                 2.977867909042096E+05,      /* I = 46 */
(PID.TID 0000.0001)                 3.000380090330854E+05,      /* I = 47 */
(PID.TID 0000.0001)     2 @  3.011625828699101E+05,             /* I = 48: 49 */
(PID.TID 0000.0001)                 3.000380090330854E+05,      /* I = 50 */
(PID.TID 0000.0001)                 2.977867909042096E+05,      /* I = 51 */
(PID.TID 0000.0001)                 2.944035815526416E+05,      /* I = 52 */
(PID.TID 0000.0001)                 2.898778860929753E+05,      /* I = 53 */
(PID.TID 0000.0001)                 2.841906470085516E+05,      /* I = 54 */
(PID.TID 0000.0001)                 2.773091043277394E+05,      /* I = 55 */
(PID.TID 0000.0001)                 2.691790288994575E+05,      /* I = 56 */
(PID.TID 0000.0001)                 2.597126963772147E+05,      /* I = 57 */
(PID.TID 0000.0001)                 2.487693460283865E+05,      /* I = 58 */
(PID.TID 0000.0001)                 2.361211699596122E+05,      /* I = 59 */
(PID.TID 0000.0001)                 2.213884732245467E+05,      /* I = 60 */
(PID.TID 0000.0001)                 2.038999045536999E+05,      /* I = 61 */
(PID.TID 0000.0001)                 1.823321598773926E+05,      /* I = 62 */
(PID.TID 0000.0001)                 1.534505834330338E+05,      /* I = 63 */
(PID.TID 0000.0001)     2 @  1.009837800879055E+05,             /* I = 64: 65 */
(PID.TID 0000.0001)                 1.534505834330338E+05,      /* I = 66 */
(PID.TID 0000.0001)                 1.823321598773926E+05,      /* I = 67 */
(PID.TID 0000.0001)                 2.038999045536999E+05,      /* I = 68 */
(PID.TID 0000.0001)                 2.213884732245467E+05,      /* I = 69 */
(PID.TID 0000.0001)                 2.361211699596122E+05,      /* I = 70 */
(PID.TID 0000.0001)                 2.487693460283865E+05,      /* I = 71 */
(PID.TID 0000.0001)                 2.597126963772147E+05,      /* I = 72 */
(PID.TID 0000.0001)                 2.691790288994575E+05,      /* I = 73 */
(PID.TID 0000.0001)                 2.773091043277394E+05,      /* I = 74 */
(PID.TID 0000.0001)                 2.841906470085516E+05,      /* I = 75 */
(PID.TID 0000.0001)                 2.898778860929753E+05,      /* I = 76 */
(PID.TID 0000.0001)                 2.944035815526416E+05,      /* I = 77 */
(PID.TID 0000.0001)                 2.977867909042096E+05,      /* I = 78 */
(PID.TID 0000.0001)                 3.000380090330854E+05,      /* I = 79 */
(PID.TID 0000.0001)     2 @  3.011625828699101E+05,             /* I = 80: 81 */
(PID.TID 0000.0001)                 3.000380090330854E+05,      /* I = 82 */
(PID.TID 0000.0001)                 2.977867909042096E+05,      /* I = 83 */
(PID.TID 0000.0001)                 2.944035815526416E+05,      /* I = 84 */
(PID.TID 0000.0001)                 2.898778860929753E+05,      /* I = 85 */
(PID.TID 0000.0001)                 2.841906470085516E+05,      /* I = 86 */
(PID.TID 0000.0001)                 2.773091043277394E+05,      /* I = 87 */
(PID.TID 0000.0001)                 2.691790288994575E+05,      /* I = 88 */
(PID.TID 0000.0001)                 2.597126963772147E+05,      /* I = 89 */
(PID.TID 0000.0001)                 2.487693460283865E+05,      /* I = 90 */
(PID.TID 0000.0001)                 2.361211699596122E+05,      /* I = 91 */
(PID.TID 0000.0001)                 2.213884732245467E+05,      /* I = 92 */
(PID.TID 0000.0001)                 2.038999045536999E+05,      /* I = 93 */
(PID.TID 0000.0001)                 1.823321598773926E+05,      /* I = 94 */
(PID.TID 0000.0001)                 1.534505834330338E+05,      /* I = 95 */
(PID.TID 0000.0001)     2 @  1.009837800879055E+05,             /* I = 96: 97 */
(PID.TID 0000.0001)                 1.534505834330338E+05,      /* I = 98 */
(PID.TID 0000.0001)                 1.823321598773926E+05,      /* I = 99 */
(PID.TID 0000.0001)                 2.038999045536999E+05,      /* I =100 */
(PID.TID 0000.0001)                 2.213884732245467E+05,      /* I =101 */
(PID.TID 0000.0001)                 2.361211699596122E+05,      /* I =102 */
(PID.TID 0000.0001)                 2.487693460283865E+05,      /* I =103 */
(PID.TID 0000.0001)                 2.597126963772147E+05,      /* I =104 */
(PID.TID 0000.0001)                 2.691790288994575E+05,      /* I =105 */
(PID.TID 0000.0001)                 2.773091043277394E+05,      /* I =106 */
(PID.TID 0000.0001)                 2.841906470085516E+05,      /* I =107 */
(PID.TID 0000.0001)                 2.898778860929753E+05,      /* I =108 */
(PID.TID 0000.0001)                 2.944035815526416E+05,      /* I =109 */
(PID.TID 0000.0001)                 2.977867909042096E+05,      /* I =110 */
(PID.TID 0000.0001)                 3.000380090330854E+05,      /* I =111 */
(PID.TID 0000.0001)     2 @  3.011625828699101E+05,             /* I =112:113 */
(PID.TID 0000.0001)                 3.000380090330854E+05,      /* I =114 */
(PID.TID 0000.0001)                 2.977867909042096E+05,      /* I =115 */
(PID.TID 0000.0001)                 2.944035815526416E+05,      /* I =116 */
(PID.TID 0000.0001)                 2.898778860929753E+05,      /* I =117 */
(PID.TID 0000.0001)                 2.841906470085516E+05,      /* I =118 */
(PID.TID 0000.0001)                 2.773091043277394E+05,      /* I =119 */
(PID.TID 0000.0001)                 2.691790288994575E+05,      /* I =120 */
(PID.TID 0000.0001)                 2.597126963772147E+05,      /* I =121 */
(PID.TID 0000.0001)                 2.487693460283865E+05,      /* I =122 */
(PID.TID 0000.0001)                 2.361211699596122E+05,      /* I =123 */
(PID.TID 0000.0001)                 2.213884732245467E+05,      /* I =124 */
(PID.TID 0000.0001)                 2.038999045536999E+05,      /* I =125 */
(PID.TID 0000.0001)                 1.823321598773926E+05,      /* I =126 */
(PID.TID 0000.0001)                 1.534505834330338E+05,      /* I =127 */
(PID.TID 0000.0001)     2 @  1.009837800879055E+05,             /* I =128:129 */
(PID.TID 0000.0001)                 1.534505834330338E+05,      /* I =130 */
(PID.TID 0000.0001)                 1.823321598773926E+05,      /* I =131 */
(PID.TID 0000.0001)                 2.038999045536999E+05,      /* I =132 */
(PID.TID 0000.0001)                 2.213884732245467E+05,      /* I =133 */
(PID.TID 0000.0001)                 2.361211699596122E+05,      /* I =134 */
(PID.TID 0000.0001)                 2.487693460283865E+05,      /* I =135 */
(PID.TID 0000.0001)                 2.597126963772147E+05,      /* I =136 */
(PID.TID 0000.0001)                 2.691790288994575E+05,      /* I =137 */
(PID.TID 0000.0001)                 2.773091043277394E+05,      /* I =138 */
(PID.TID 0000.0001)                 2.841906470085516E+05,      /* I =139 */
(PID.TID 0000.0001)                 2.898778860929753E+05,      /* I =140 */
(PID.TID 0000.0001)                 2.944035815526416E+05,      /* I =141 */
(PID.TID 0000.0001)                 2.977867909042096E+05,      /* I =142 */
(PID.TID 0000.0001)                 3.000380090330854E+05,      /* I =143 */
(PID.TID 0000.0001)     2 @  3.011625828699101E+05,             /* I =144:145 */
(PID.TID 0000.0001)                 3.000380090330854E+05,      /* I =146 */
(PID.TID 0000.0001)                 2.977867909042096E+05,      /* I =147 */
(PID.TID 0000.0001)                 2.944035815526416E+05,      /* I =148 */
(PID.TID 0000.0001)                 2.898778860929753E+05,      /* I =149 */
(PID.TID 0000.0001)                 2.841906470085516E+05,      /* I =150 */
(PID.TID 0000.0001)                 2.773091043277394E+05,      /* I =151 */
(PID.TID 0000.0001)                 2.691790288994575E+05,      /* I =152 */
(PID.TID 0000.0001)                 2.597126963772147E+05,      /* I =153 */
(PID.TID 0000.0001)                 2.487693460283865E+05,      /* I =154 */
(PID.TID 0000.0001)                 2.361211699596122E+05,      /* I =155 */
(PID.TID 0000.0001)                 2.213884732245467E+05,      /* I =156 */
(PID.TID 0000.0001)                 2.038999045536999E+05,      /* I =157 */
(PID.TID 0000.0001)                 1.823321598773926E+05,      /* I =158 */
(PID.TID 0000.0001)                 1.534505834330338E+05,      /* I =159 */
(PID.TID 0000.0001)     2 @  1.009837800879055E+05,             /* I =160:161 */
(PID.TID 0000.0001)                 1.534505834330338E+05,      /* I =162 */
(PID.TID 0000.0001)                 1.823321598773926E+05,      /* I =163 */
(PID.TID 0000.0001)                 2.038999045536999E+05,      /* I =164 */
(PID.TID 0000.0001)                 2.213884732245467E+05,      /* I =165 */
(PID.TID 0000.0001)                 2.361211699596122E+05,      /* I =166 */
(PID.TID 0000.0001)                 2.487693460283865E+05,      /* I =167 */
(PID.TID 0000.0001)                 2.597126963772147E+05,      /* I =168 */
(PID.TID 0000.0001)                 2.691790288994575E+05,      /* I =169 */
(PID.TID 0000.0001)                 2.773091043277394E+05,      /* I =170 */
(PID.TID 0000.0001)                 2.841906470085516E+05,      /* I =171 */
(PID.TID 0000.0001)                 2.898778860929753E+05,      /* I =172 */
(PID.TID 0000.0001)                 2.944035815526416E+05,      /* I =173 */
(PID.TID 0000.0001)                 2.977867909042096E+05,      /* I =174 */
(PID.TID 0000.0001)                 3.000380090330854E+05,      /* I =175 */
(PID.TID 0000.0001)     2 @  3.011625828699101E+05,             /* I =176:177 */
(PID.TID 0000.0001)                 3.000380090330854E+05,      /* I =178 */
(PID.TID 0000.0001)                 2.977867909042096E+05,      /* I =179 */
(PID.TID 0000.0001)                 2.944035815526416E+05,      /* I =180 */
(PID.TID 0000.0001)                 2.898778860929753E+05,      /* I =181 */
(PID.TID 0000.0001)                 2.841906470085516E+05,      /* I =182 */
(PID.TID 0000.0001)                 2.773091043277394E+05,      /* I =183 */
(PID.TID 0000.0001)                 2.691790288994575E+05,      /* I =184 */
(PID.TID 0000.0001)                 2.597126963772147E+05,      /* I =185 */
(PID.TID 0000.0001)                 2.487693460283865E+05,      /* I =186 */
(PID.TID 0000.0001)                 2.361211699596122E+05,      /* I =187 */
(PID.TID 0000.0001)                 2.213884732245467E+05,      /* I =188 */
(PID.TID 0000.0001)                 2.038999045536999E+05,      /* I =189 */
(PID.TID 0000.0001)                 1.823321598773926E+05,      /* I =190 */
(PID.TID 0000.0001)                 1.534505834330338E+05,      /* I =191 */
(PID.TID 0000.0001)                 1.009837800879055E+05       /* I =192 */
(PID.TID 0000.0001)     ;
(PID.TID 0000.0001) dxG =  /* dxG(1,:,1,:) ( m - cartesian, degrees - spherical ) */
(PID.TID 0000.0001)                 1.009837800879055E+05,      /* J =  1 */
(PID.TID 0000.0001)                 1.403701524205398E+05,      /* J =  2 */
(PID.TID 0000.0001)                 1.716197227386011E+05,      /* J =  3 */
(PID.TID 0000.0001)                 1.950254041626018E+05,      /* J =  4 */
(PID.TID 0000.0001)                 2.138410773065497E+05,      /* J =  5 */
(PID.TID 0000.0001)                 2.295958105911512E+05,      /* J =  6 */
(PID.TID 0000.0001)                 2.430829951739083E+05,      /* J =  7 */
(PID.TID 0000.0001)                 2.547526806712889E+05,      /* J =  8 */
(PID.TID 0000.0001)                 2.648750305193301E+05,      /* J =  9 */
(PID.TID 0000.0001)                 2.736173771018112E+05,      /* J = 10 */
(PID.TID 0000.0001)                 2.810845823202647E+05,      /* J = 11 */
(PID.TID 0000.0001)                 2.873420591008078E+05,      /* J = 12 */
(PID.TID 0000.0001)                 2.924298293668651E+05,      /* J = 13 */
(PID.TID 0000.0001)                 2.963715635865306E+05,      /* J = 14 */
(PID.TID 0000.0001)                 2.991805843171258E+05,      /* J = 15 */
(PID.TID 0000.0001)                 3.008638765647886E+05,      /* J = 16 */
(PID.TID 0000.0001)                 3.014246674484008E+05,      /* J = 17 */
(PID.TID 0000.0001)                 3.008638765647886E+05,      /* J = 18 */
(PID.TID 0000.0001)                 2.991805843171258E+05,      /* J = 19 */
(PID.TID 0000.0001)                 2.963715635865306E+05,      /* J = 20 */
(PID.TID 0000.0001)                 2.924298293668651E+05,      /* J = 21 */
(PID.TID 0000.0001)                 2.873420591008078E+05,      /* J = 22 */
(PID.TID 0000.0001)                 2.810845823202647E+05,      /* J = 23 */
(PID.TID 0000.0001)                 2.736173771018112E+05,      /* J = 24 */
(PID.TID 0000.0001)                 2.648750305193301E+05,      /* J = 25 */
(PID.TID 0000.0001)                 2.547526806712889E+05,      /* J = 26 */
(PID.TID 0000.0001)                 2.430829951739083E+05,      /* J = 27 */
(PID.TID 0000.0001)                 2.295958105911512E+05,      /* J = 28 */
(PID.TID 0000.0001)                 2.138410773065497E+05,      /* J = 29 */
(PID.TID 0000.0001)                 1.950254041626018E+05,      /* J = 30 */
(PID.TID 0000.0001)                 1.716197227386011E+05,      /* J = 31 */
(PID.TID 0000.0001)                 1.403701524205398E+05       /* J = 32 */
(PID.TID 0000.0001)     ;
(PID.TID 0000.0001) dyG =  /* dyG(:,1,:,1) ( m - cartesian, degrees - spherical ) */
(PID.TID 0000.0001)                 1.009837800879055E+05,      /* I =  1 */
(PID.TID 0000.0001)                 1.403701524205398E+05,      /* I =  2 */
(PID.TID 0000.0001)                 1.716197227386011E+05,      /* I =  3 */
(PID.TID 0000.0001)                 1.950254041626018E+05,      /* I =  4 */
(PID.TID 0000.0001)                 2.138410773065497E+05,      /* I =  5 */
(PID.TID 0000.0001)                 2.295958105911512E+05,      /* I =  6 */
(PID.TID 0000.0001)                 2.430829951739083E+05,      /* I =  7 */
(PID.TID 0000.0001)                 2.547526806712889E+05,      /* I =  8 */
(PID.TID 0000.0001)                 2.648750305193301E+05,      /* I =  9 */
(PID.TID 0000.0001)                 2.736173771018112E+05,      /* I = 10 */
(PID.TID 0000.0001)                 2.810845823202647E+05,      /* I = 11 */
(PID.TID 0000.0001)                 2.873420591008078E+05,      /* I = 12 */
(PID.TID 0000.0001)                 2.924298293668651E+05,      /* I = 13 */
(PID.TID 0000.0001)                 2.963715635865306E+05,      /* I = 14 */
(PID.TID 0000.0001)                 2.991805843171258E+05,      /* I = 15 */
(PID.TID 0000.0001)                 3.008638765647886E+05,      /* I = 16 */
(PID.TID 0000.0001)                 3.014246674484008E+05,      /* I = 17 */
(PID.TID 0000.0001)                 3.008638765647886E+05,      /* I = 18 */
(PID.TID 0000.0001)                 2.991805843171258E+05,      /* I = 19 */
(PID.TID 0000.0001)                 2.963715635865306E+05,      /* I = 20 */
(PID.TID 0000.0001)                 2.924298293668651E+05,      /* I = 21 */
(PID.TID 0000.0001)                 2.873420591008078E+05,      /* I = 22 */
(PID.TID 0000.0001)                 2.810845823202647E+05,      /* I = 23 */
(PID.TID 0000.0001)                 2.736173771018112E+05,      /* I = 24 */
(PID.TID 0000.0001)                 2.648750305193301E+05,      /* I = 25 */
(PID.TID 0000.0001)                 2.547526806712889E+05,      /* I = 26 */
(PID.TID 0000.0001)                 2.430829951739083E+05,      /* I = 27 */
(PID.TID 0000.0001)                 2.295958105911512E+05,      /* I = 28 */
(PID.TID 0000.0001)                 2.138410773065497E+05,      /* I = 29 */
(PID.TID 0000.0001)                 1.950254041626018E+05,      /* I = 30 */
(PID.TID 0000.0001)                 1.716197227386011E+05,      /* I = 31 */
(PID.TID 0000.0001)                 1.403701524205398E+05,      /* I = 32 */
(PID.TID 0000.0001)                 1.009837800879055E+05,      /* I = 33 */
(PID.TID 0000.0001)                 1.403701524205398E+05,      /* I = 34 */
(PID.TID 0000.0001)                 1.716197227386011E+05,      /* I = 35 */
(PID.TID 0000.0001)                 1.950254041626018E+05,      /* I = 36 */
(PID.TID 0000.0001)                 2.138410773065497E+05,      /* I = 37 */
(PID.TID 0000.0001)                 2.295958105911512E+05,      /* I = 38 */
(PID.TID 0000.0001)                 2.430829951739083E+05,      /* I = 39 */
(PID.TID 0000.0001)                 2.547526806712889E+05,      /* I = 40 */
(PID.TID 0000.0001)                 2.648750305193301E+05,      /* I = 41 */
(PID.TID 0000.0001)                 2.736173771018112E+05,      /* I = 42 */
(PID.TID 0000.0001)                 2.810845823202647E+05,      /* I = 43 */
(PID.TID 0000.0001)                 2.873420591008078E+05,      /* I = 44 */
(PID.TID 0000.0001)                 2.924298293668651E+05,      /* I = 45 */
(PID.TID 0000.0001)                 2.963715635865306E+05,      /* I = 46 */
(PID.TID 0000.0001)                 2.991805843171258E+05,      /* I = 47 */
(PID.TID 0000.0001)                 3.008638765647886E+05,      /* I = 48 */
(PID.TID 0000.0001)                 3.014246674484008E+05,      /* I = 49 */
(PID.TID 0000.0001)                 3.008638765647886E+05,      /* I = 50 */
(PID.TID 0000.0001)                 2.991805843171258E+05,      /* I = 51 */
(PID.TID 0000.0001)                 2.963715635865306E+05,      /* I = 52 */
(PID.TID 0000.0001)                 2.924298293668651E+05,      /* I = 53 */
(PID.TID 0000.0001)                 2.873420591008078E+05,      /* I = 54 */
(PID.TID 0000.0001)                 2.810845823202647E+05,      /* I = 55 */
(PID.TID 0000.0001)                 2.736173771018112E+05,      /* I = 56 */
(PID.TID 0000.0001)                 2.648750305193301E+05,      /* I = 57 */
(PID.TID 0000.0001)                 2.547526806712889E+05,      /* I = 58 */
(PID.TID 0000.0001)                 2.430829951739083E+05,      /* I = 59 */
(PID.TID 0000.0001)                 2.295958105911512E+05,      /* I = 60 */
(PID.TID 0000.0001)                 2.138410773065497E+05,      /* I = 61 */
(PID.TID 0000.0001)                 1.950254041626018E+05,      /* I = 62 */
(PID.TID 0000.0001)                 1.716197227386011E+05,      /* I = 63 */
(PID.TID 0000.0001)                 1.403701524205398E+05,      /* I = 64 */
(PID.TID 0000.0001)                 1.009837800879055E+05,      /* I = 65 */
(PID.TID 0000.0001)                 1.403701524205398E+05,      /* I = 66 */
(PID.TID 0000.0001)                 1.716197227386011E+05,      /* I = 67 */
(PID.TID 0000.0001)                 1.950254041626018E+05,      /* I = 68 */
(PID.TID 0000.0001)                 2.138410773065497E+05,      /* I = 69 */
(PID.TID 0000.0001)                 2.295958105911512E+05,      /* I = 70 */
(PID.TID 0000.0001)                 2.430829951739083E+05,      /* I = 71 */
(PID.TID 0000.0001)                 2.547526806712889E+05,      /* I = 72 */
(PID.TID 0000.0001)                 2.648750305193301E+05,      /* I = 73 */
(PID.TID 0000.0001)                 2.736173771018112E+05,      /* I = 74 */
(PID.TID 0000.0001)                 2.810845823202647E+05,      /* I = 75 */
(PID.TID 0000.0001)                 2.873420591008078E+05,      /* I = 76 */
(PID.TID 0000.0001)                 2.924298293668651E+05,      /* I = 77 */
(PID.TID 0000.0001)                 2.963715635865306E+05,      /* I = 78 */
(PID.TID 0000.0001)                 2.991805843171258E+05,      /* I = 79 */
(PID.TID 0000.0001)                 3.008638765647886E+05,      /* I = 80 */
(PID.TID 0000.0001)                 3.014246674484008E+05,      /* I = 81 */
(PID.TID 0000.0001)                 3.008638765647886E+05,      /* I = 82 */
(PID.TID 0000.0001)                 2.991805843171258E+05,      /* I = 83 */
(PID.TID 0000.0001)                 2.963715635865306E+05,      /* I = 84 */
(PID.TID 0000.0001)                 2.924298293668651E+05,      /* I = 85 */
(PID.TID 0000.0001)                 2.873420591008078E+05,      /* I = 86 */
(PID.TID 0000.0001)                 2.810845823202647E+05,      /* I = 87 */
(PID.TID 0000.0001)                 2.736173771018112E+05,      /* I = 88 */
(PID.TID 0000.0001)                 2.648750305193301E+05,      /* I = 89 */
(PID.TID 0000.0001)                 2.547526806712889E+05,      /* I = 90 */
(PID.TID 0000.0001)                 2.430829951739083E+05,      /* I = 91 */
(PID.TID 0000.0001)                 2.295958105911512E+05,      /* I = 92 */
(PID.TID 0000.0001)                 2.138410773065497E+05,      /* I = 93 */
(PID.TID 0000.0001)                 1.950254041626018E+05,      /* I = 94 */
(PID.TID 0000.0001)                 1.716197227386011E+05,      /* I = 95 */
(PID.TID 0000.0001)                 1.403701524205398E+05,      /* I = 96 */
(PID.TID 0000.0001)                 1.009837800879055E+05,      /* I = 97 */
(PID.TID 0000.0001)                 1.403701524205398E+05,      /* I = 98 */
(PID.TID 0000.0001)                 1.716197227386011E+05,      /* I = 99 */
(PID.TID 0000.0001)                 1.950254041626018E+05,      /* I =100 */
(PID.TID 0000.0001)                 2.138410773065497E+05,      /* I =101 */
(PID.TID 0000.0001)                 2.295958105911512E+05,      /* I =102 */
(PID.TID 0000.0001)                 2.430829951739083E+05,      /* I =103 */
(PID.TID 0000.0001)                 2.547526806712889E+05,      /* I =104 */
(PID.TID 0000.0001)                 2.648750305193301E+05,      /* I =105 */
(PID.TID 0000.0001)                 2.736173771018112E+05,      /* I =106 */
(PID.TID 0000.0001)                 2.810845823202647E+05,      /* I =107 */
(PID.TID 0000.0001)                 2.873420591008078E+05,      /* I =108 */
(PID.TID 0000.0001)                 2.924298293668651E+05,      /* I =109 */
(PID.TID 0000.0001)                 2.963715635865306E+05,      /* I =110 */
(PID.TID 0000.0001)                 2.991805843171258E+05,      /* I =111 */
(PID.TID 0000.0001)                 3.008638765647886E+05,      /* I =112 */
(PID.TID 0000.0001)                 3.014246674484008E+05,      /* I =113 */
(PID.TID 0000.0001)                 3.008638765647886E+05,      /* I =114 */
(PID.TID 0000.0001)                 2.991805843171258E+05,      /* I =115 */
(PID.TID 0000.0001)                 2.963715635865306E+05,      /* I =116 */
(PID.TID 0000.0001)                 2.924298293668651E+05,      /* I =117 */
(PID.TID 0000.0001)                 2.873420591008078E+05,      /* I =118 */
(PID.TID 0000.0001)                 2.810845823202647E+05,      /* I =119 */
(PID.TID 0000.0001)                 2.736173771018112E+05,      /* I =120 */
(PID.TID 0000.0001)                 2.648750305193301E+05,      /* I =121 */
(PID.TID 0000.0001)                 2.547526806712889E+05,      /* I =122 */
(PID.TID 0000.0001)                 2.430829951739083E+05,      /* I =123 */
(PID.TID 0000.0001)                 2.295958105911512E+05,      /* I =124 */
(PID.TID 0000.0001)                 2.138410773065497E+05,      /* I =125 */
(PID.TID 0000.0001)                 1.950254041626018E+05,      /* I =126 */
(PID.TID 0000.0001)                 1.716197227386011E+05,      /* I =127 */
(PID.TID 0000.0001)                 1.403701524205398E+05,      /* I =128 */
(PID.TID 0000.0001)                 1.009837800879055E+05,      /* I =129 */
(PID.TID 0000.0001)                 1.403701524205398E+05,      /* I =130 */
(PID.TID 0000.0001)                 1.716197227386011E+05,      /* I =131 */
(PID.TID 0000.0001)                 1.950254041626018E+05,      /* I =132 */
(PID.TID 0000.0001)                 2.138410773065497E+05,      /* I =133 */
(PID.TID 0000.0001)                 2.295958105911512E+05,      /* I =134 */
(PID.TID 0000.0001)                 2.430829951739083E+05,      /* I =135 */
(PID.TID 0000.0001)                 2.547526806712889E+05,      /* I =136 */
(PID.TID 0000.0001)                 2.648750305193301E+05,      /* I =137 */
(PID.TID 0000.0001)                 2.736173771018112E+05,      /* I =138 */
(PID.TID 0000.0001)                 2.810845823202647E+05,      /* I =139 */
(PID.TID 0000.0001)                 2.873420591008078E+05,      /* I =140 */
(PID.TID 0000.0001)                 2.924298293668651E+05,      /* I =141 */
(PID.TID 0000.0001)                 2.963715635865306E+05,      /* I =142 */
(PID.TID 0000.0001)                 2.991805843171258E+05,      /* I =143 */
(PID.TID 0000.0001)                 3.008638765647886E+05,      /* I =144 */
(PID.TID 0000.0001)                 3.014246674484008E+05,      /* I =145 */
(PID.TID 0000.0001)                 3.008638765647886E+05,      /* I =146 */
(PID.TID 0000.0001)                 2.991805843171258E+05,      /* I =147 */
(PID.TID 0000.0001)                 2.963715635865306E+05,      /* I =148 */
(PID.TID 0000.0001)                 2.924298293668651E+05,      /* I =149 */
(PID.TID 0000.0001)                 2.873420591008078E+05,      /* I =150 */
(PID.TID 0000.0001)                 2.810845823202647E+05,      /* I =151 */
(PID.TID 0000.0001)                 2.736173771018112E+05,      /* I =152 */
(PID.TID 0000.0001)                 2.648750305193301E+05,      /* I =153 */
(PID.TID 0000.0001)                 2.547526806712889E+05,      /* I =154 */
(PID.TID 0000.0001)                 2.430829951739083E+05,      /* I =155 */
(PID.TID 0000.0001)                 2.295958105911512E+05,      /* I =156 */
(PID.TID 0000.0001)                 2.138410773065497E+05,      /* I =157 */
(PID.TID 0000.0001)                 1.950254041626018E+05,      /* I =158 */
(PID.TID 0000.0001)                 1.716197227386011E+05,      /* I =159 */
(PID.TID 0000.0001)                 1.403701524205398E+05,      /* I =160 */
(PID.TID 0000.0001)                 1.009837800879055E+05,      /* I =161 */
(PID.TID 0000.0001)                 1.403701524205398E+05,      /* I =162 */
(PID.TID 0000.0001)                 1.716197227386011E+05,      /* I =163 */
(PID.TID 0000.0001)                 1.950254041626018E+05,      /* I =164 */
(PID.TID 0000.0001)                 2.138410773065497E+05,      /* I =165 */
(PID.TID 0000.0001)                 2.295958105911512E+05,      /* I =166 */
(PID.TID 0000.0001)                 2.430829951739083E+05,      /* I =167 */
(PID.TID 0000.0001)                 2.547526806712889E+05,      /* I =168 */
(PID.TID 0000.0001)                 2.648750305193301E+05,      /* I =169 */
(PID.TID 0000.0001)                 2.736173771018112E+05,      /* I =170 */
(PID.TID 0000.0001)                 2.810845823202647E+05,      /* I =171 */
(PID.TID 0000.0001)                 2.873420591008078E+05,      /* I =172 */
(PID.TID 0000.0001)                 2.924298293668651E+05,      /* I =173 */
(PID.TID 0000.0001)                 2.963715635865306E+05,      /* I =174 */
(PID.TID 0000.0001)                 2.991805843171258E+05,      /* I =175 */
(PID.TID 0000.0001)                 3.008638765647886E+05,      /* I =176 */
(PID.TID 0000.0001)                 3.014246674484008E+05,      /* I =177 */
(PID.TID 0000.0001)                 3.008638765647886E+05,      /* I =178 */
(PID.TID 0000.0001)                 2.991805843171258E+05,      /* I =179 */
(PID.TID 0000.0001)                 2.963715635865306E+05,      /* I =180 */
(PID.TID 0000.0001)                 2.924298293668651E+05,      /* I =181 */
(PID.TID 0000.0001)                 2.873420591008078E+05,      /* I =182 */
(PID.TID 0000.0001)                 2.810845823202647E+05,      /* I =183 */
(PID.TID 0000.0001)                 2.736173771018112E+05,      /* I =184 */
(PID.TID 0000.0001)                 2.648750305193301E+05,      /* I =185 */
(PID.TID 0000.0001)                 2.547526806712889E+05,      /* I =186 */
(PID.TID 0000.0001)                 2.430829951739083E+05,      /* I =187 */
(PID.TID 0000.0001)                 2.295958105911512E+05,      /* I =188 */
(PID.TID 0000.0001)                 2.138410773065497E+05,      /* I =189 */
(PID.TID 0000.0001)                 1.950254041626018E+05,      /* I =190 */
(PID.TID 0000.0001)                 1.716197227386011E+05,      /* I =191 */
(PID.TID 0000.0001)                 1.403701524205398E+05       /* I =192 */
(PID.TID 0000.0001)     ;
(PID.TID 0000.0001) dyG =  /* dyG(1,:,1,:) ( m - cartesian, degrees - spherical ) */
(PID.TID 0000.0001)                 1.009837800879055E+05,      /* J =  1 */
(PID.TID 0000.0001)                 1.534505834330338E+05,      /* J =  2 */
(PID.TID 0000.0001)                 1.823321598773926E+05,      /* J =  3 */
(PID.TID 0000.0001)                 2.038999045536999E+05,      /* J =  4 */
(PID.TID 0000.0001)                 2.213884732245467E+05,      /* J =  5 */
(PID.TID 0000.0001)                 2.361211699596122E+05,      /* J =  6 */
(PID.TID 0000.0001)                 2.487693460283865E+05,      /* J =  7 */
(PID.TID 0000.0001)                 2.597126963772147E+05,      /* J =  8 */
(PID.TID 0000.0001)                 2.691790288994575E+05,      /* J =  9 */
(PID.TID 0000.0001)                 2.773091043277394E+05,      /* J = 10 */
(PID.TID 0000.0001)                 2.841906470085516E+05,      /* J = 11 */
(PID.TID 0000.0001)                 2.898778860929753E+05,      /* J = 12 */
(PID.TID 0000.0001)                 2.944035815526416E+05,      /* J = 13 */
(PID.TID 0000.0001)                 2.977867909042096E+05,      /* J = 14 */
(PID.TID 0000.0001)                 3.000380090330854E+05,      /* J = 15 */
(PID.TID 0000.0001)     2 @  3.011625828699101E+05,             /* J = 16: 17 */
(PID.TID 0000.0001)                 3.000380090330854E+05,      /* J = 18 */
(PID.TID 0000.0001)                 2.977867909042096E+05,      /* J = 19 */
(PID.TID 0000.0001)                 2.944035815526416E+05,      /* J = 20 */
(PID.TID 0000.0001)                 2.898778860929753E+05,      /* J = 21 */
(PID.TID 0000.0001)                 2.841906470085516E+05,      /* J = 22 */
(PID.TID 0000.0001)                 2.773091043277394E+05,      /* J = 23 */
(PID.TID 0000.0001)                 2.691790288994575E+05,      /* J = 24 */
(PID.TID 0000.0001)                 2.597126963772147E+05,      /* J = 25 */
(PID.TID 0000.0001)                 2.487693460283865E+05,      /* J = 26 */
(PID.TID 0000.0001)                 2.361211699596122E+05,      /* J = 27 */
(PID.TID 0000.0001)                 2.213884732245467E+05,      /* J = 28 */
(PID.TID 0000.0001)                 2.038999045536999E+05,      /* J = 29 */
(PID.TID 0000.0001)                 1.823321598773926E+05,      /* J = 30 */
(PID.TID 0000.0001)                 1.534505834330338E+05,      /* J = 31 */
(PID.TID 0000.0001)                 1.009837800879055E+05       /* J = 32 */
(PID.TID 0000.0001)     ;
(PID.TID 0000.0001) dxC =  /* dxC(:,1,:,1) ( m - cartesian, degrees - spherical ) */
(PID.TID 0000.0001)                 1.114203141013064E+05,      /* I =  1 */
(PID.TID 0000.0001)                 1.391343389937106E+05,      /* I =  2 */
(PID.TID 0000.0001)                 1.709574999026266E+05,      /* I =  3 */
(PID.TID 0000.0001)                 1.946503699269892E+05,      /* I =  4 */
(PID.TID 0000.0001)                 2.135964483342134E+05,      /* I =  5 */
(PID.TID 0000.0001)                 2.294195678257306E+05,      /* I =  6 */
(PID.TID 0000.0001)                 2.429464709770498E+05,      /* I =  7 */
(PID.TID 0000.0001)                 2.546408290696998E+05,      /* I =  8 */
(PID.TID 0000.0001)                 2.647791839299727E+05,      /* I =  9 */
(PID.TID 0000.0001)                 2.735321911346108E+05,      /* I = 10 */
(PID.TID 0000.0001)                 2.810065951609633E+05,      /* I = 11 */
(PID.TID 0000.0001)                 2.872689479506990E+05,      /* I = 12 */
(PID.TID 0000.0001)                 2.923599955312932E+05,      /* I = 13 */
(PID.TID 0000.0001)                 2.963038832565530E+05,      /* I = 14 */
(PID.TID 0000.0001)                 2.991142470004740E+05,      /* I = 15 */
(PID.TID 0000.0001)                 3.007982711627968E+05,      /* I = 16 */
(PID.TID 0000.0001)                 3.013593857228136E+05,      /* I = 17 */
(PID.TID 0000.0001)                 3.007982711627968E+05,      /* I = 18 */
(PID.TID 0000.0001)                 2.991142470004740E+05,      /* I = 19 */
(PID.TID 0000.0001)                 2.963038832565530E+05,      /* I = 20 */
(PID.TID 0000.0001)                 2.923599955312932E+05,      /* I = 21 */
(PID.TID 0000.0001)                 2.872689479506990E+05,      /* I = 22 */
(PID.TID 0000.0001)                 2.810065951609633E+05,      /* I = 23 */
(PID.TID 0000.0001)                 2.735321911346108E+05,      /* I = 24 */
(PID.TID 0000.0001)                 2.647791839299727E+05,      /* I = 25 */
(PID.TID 0000.0001)                 2.546408290696998E+05,      /* I = 26 */
(PID.TID 0000.0001)                 2.429464709770498E+05,      /* I = 27 */
(PID.TID 0000.0001)                 2.294195678257306E+05,      /* I = 28 */
(PID.TID 0000.0001)                 2.135964483342134E+05,      /* I = 29 */
(PID.TID 0000.0001)                 1.946503699269892E+05,      /* I = 30 */
(PID.TID 0000.0001)                 1.709574999026266E+05,      /* I = 31 */
(PID.TID 0000.0001)                 1.391343389937106E+05,      /* I = 32 */
(PID.TID 0000.0001)                 1.114203141013064E+05,      /* I = 33 */
(PID.TID 0000.0001)                 1.391343389937106E+05,      /* I = 34 */
(PID.TID 0000.0001)                 1.709574999026266E+05,      /* I = 35 */
(PID.TID 0000.0001)                 1.946503699269892E+05,      /* I = 36 */
(PID.TID 0000.0001)                 2.135964483342134E+05,      /* I = 37 */
(PID.TID 0000.0001)                 2.294195678257306E+05,      /* I = 38 */
(PID.TID 0000.0001)                 2.429464709770498E+05,      /* I = 39 */
(PID.TID 0000.0001)                 2.546408290696998E+05,      /* I = 40 */
(PID.TID 0000.0001)                 2.647791839299727E+05,      /* I = 41 */
(PID.TID 0000.0001)                 2.735321911346108E+05,      /* I = 42 */
(PID.TID 0000.0001)                 2.810065951609633E+05,      /* I = 43 */
(PID.TID 0000.0001)                 2.872689479506990E+05,      /* I = 44 */
(PID.TID 0000.0001)                 2.923599955312932E+05,      /* I = 45 */
(PID.TID 0000.0001)                 2.963038832565530E+05,      /* I = 46 */
(PID.TID 0000.0001)                 2.991142470004740E+05,      /* I = 47 */
(PID.TID 0000.0001)                 3.007982711627968E+05,      /* I = 48 */
(PID.TID 0000.0001)                 3.013593857228136E+05,      /* I = 49 */
(PID.TID 0000.0001)                 3.007982711627968E+05,      /* I = 50 */
(PID.TID 0000.0001)                 2.991142470004740E+05,      /* I = 51 */
(PID.TID 0000.0001)                 2.963038832565530E+05,      /* I = 52 */
(PID.TID 0000.0001)                 2.923599955312932E+05,      /* I = 53 */
(PID.TID 0000.0001)                 2.872689479506990E+05,      /* I = 54 */
(PID.TID 0000.0001)                 2.810065951609633E+05,      /* I = 55 */
(PID.TID 0000.0001)                 2.735321911346108E+05,      /* I = 56 */
(PID.TID 0000.0001)                 2.647791839299727E+05,      /* I = 57 */
(PID.TID 0000.0001)                 2.546408290696998E+05,      /* I = 58 */
(PID.TID 0000.0001)                 2.429464709770498E+05,      /* I = 59 */
(PID.TID 0000.0001)                 2.294195678257306E+05,      /* I = 60 */
(PID.TID 0000.0001)                 2.135964483342134E+05,      /* I = 61 */
(PID.TID 0000.0001)                 1.946503699269892E+05,      /* I = 62 */
(PID.TID 0000.0001)                 1.709574999026266E+05,      /* I = 63 */
(PID.TID 0000.0001)                 1.391343389937106E+05,      /* I = 64 */
(PID.TID 0000.0001)                 1.114203141013064E+05,      /* I = 65 */
(PID.TID 0000.0001)                 1.391343389937106E+05,      /* I = 66 */
(PID.TID 0000.0001)                 1.709574999026266E+05,      /* I = 67 */
(PID.TID 0000.0001)                 1.946503699269892E+05,      /* I = 68 */
(PID.TID 0000.0001)                 2.135964483342134E+05,      /* I = 69 */
(PID.TID 0000.0001)                 2.294195678257306E+05,      /* I = 70 */
(PID.TID 0000.0001)                 2.429464709770498E+05,      /* I = 71 */
(PID.TID 0000.0001)                 2.546408290696998E+05,      /* I = 72 */
(PID.TID 0000.0001)                 2.647791839299727E+05,      /* I = 73 */
(PID.TID 0000.0001)                 2.735321911346108E+05,      /* I = 74 */
(PID.TID 0000.0001)                 2.810065951609633E+05,      /* I = 75 */
(PID.TID 0000.0001)                 2.872689479506990E+05,      /* I = 76 */
(PID.TID 0000.0001)                 2.923599955312932E+05,      /* I = 77 */
(PID.TID 0000.0001)                 2.963038832565530E+05,      /* I = 78 */
(PID.TID 0000.0001)                 2.991142470004740E+05,      /* I = 79 */
(PID.TID 0000.0001)                 3.007982711627968E+05,      /* I = 80 */
(PID.TID 0000.0001)                 3.013593857228136E+05,      /* I = 81 */
(PID.TID 0000.0001)                 3.007982711627968E+05,      /* I = 82 */
(PID.TID 0000.0001)                 2.991142470004740E+05,      /* I = 83 */
(PID.TID 0000.0001)                 2.963038832565530E+05,      /* I = 84 */
(PID.TID 0000.0001)                 2.923599955312932E+05,      /* I = 85 */
(PID.TID 0000.0001)                 2.872689479506990E+05,      /* I = 86 */
(PID.TID 0000.0001)                 2.810065951609633E+05,      /* I = 87 */
(PID.TID 0000.0001)                 2.735321911346108E+05,      /* I = 88 */
(PID.TID 0000.0001)                 2.647791839299727E+05,      /* I = 89 */
(PID.TID 0000.0001)                 2.546408290696998E+05,      /* I = 90 */
(PID.TID 0000.0001)                 2.429464709770498E+05,      /* I = 91 */
(PID.TID 0000.0001)                 2.294195678257306E+05,      /* I = 92 */
(PID.TID 0000.0001)                 2.135964483342134E+05,      /* I = 93 */
(PID.TID 0000.0001)                 1.946503699269892E+05,      /* I = 94 */
(PID.TID 0000.0001)                 1.709574999026266E+05,      /* I = 95 */
(PID.TID 0000.0001)                 1.391343389937106E+05,      /* I = 96 */
(PID.TID 0000.0001)                 1.114203141013064E+05,      /* I = 97 */
(PID.TID 0000.0001)                 1.391343389937106E+05,      /* I = 98 */
(PID.TID 0000.0001)                 1.709574999026266E+05,      /* I = 99 */
(PID.TID 0000.0001)                 1.946503699269892E+05,      /* I =100 */
(PID.TID 0000.0001)                 2.135964483342134E+05,      /* I =101 */
(PID.TID 0000.0001)                 2.294195678257306E+05,      /* I =102 */
(PID.TID 0000.0001)                 2.429464709770498E+05,      /* I =103 */
(PID.TID 0000.0001)                 2.546408290696998E+05,      /* I =104 */
(PID.TID 0000.0001)                 2.647791839299727E+05,      /* I =105 */
(PID.TID 0000.0001)                 2.735321911346108E+05,      /* I =106 */
(PID.TID 0000.0001)                 2.810065951609633E+05,      /* I =107 */
(PID.TID 0000.0001)                 2.872689479506990E+05,      /* I =108 */
(PID.TID 0000.0001)                 2.923599955312932E+05,      /* I =109 */
(PID.TID 0000.0001)                 2.963038832565530E+05,      /* I =110 */
(PID.TID 0000.0001)                 2.991142470004740E+05,      /* I =111 */
(PID.TID 0000.0001)                 3.007982711627968E+05,      /* I =112 */
(PID.TID 0000.0001)                 3.013593857228136E+05,      /* I =113 */
(PID.TID 0000.0001)                 3.007982711627968E+05,      /* I =114 */
(PID.TID 0000.0001)                 2.991142470004740E+05,      /* I =115 */
(PID.TID 0000.0001)                 2.963038832565530E+05,      /* I =116 */
(PID.TID 0000.0001)                 2.923599955312932E+05,      /* I =117 */
(PID.TID 0000.0001)                 2.872689479506990E+05,      /* I =118 */
(PID.TID 0000.0001)                 2.810065951609633E+05,      /* I =119 */
(PID.TID 0000.0001)                 2.735321911346108E+05,      /* I =120 */
(PID.TID 0000.0001)                 2.647791839299727E+05,      /* I =121 */
(PID.TID 0000.0001)                 2.546408290696998E+05,      /* I =122 */
(PID.TID 0000.0001)                 2.429464709770498E+05,      /* I =123 */
(PID.TID 0000.0001)                 2.294195678257306E+05,      /* I =124 */
(PID.TID 0000.0001)                 2.135964483342134E+05,      /* I =125 */
(PID.TID 0000.0001)                 1.946503699269892E+05,      /* I =126 */
(PID.TID 0000.0001)                 1.709574999026266E+05,      /* I =127 */
(PID.TID 0000.0001)                 1.391343389937106E+05,      /* I =128 */
(PID.TID 0000.0001)                 1.114203141013064E+05,      /* I =129 */
(PID.TID 0000.0001)                 1.391343389937106E+05,      /* I =130 */
(PID.TID 0000.0001)                 1.709574999026266E+05,      /* I =131 */
(PID.TID 0000.0001)                 1.946503699269892E+05,      /* I =132 */
(PID.TID 0000.0001)                 2.135964483342134E+05,      /* I =133 */
(PID.TID 0000.0001)                 2.294195678257306E+05,      /* I =134 */
(PID.TID 0000.0001)                 2.429464709770498E+05,      /* I =135 */
(PID.TID 0000.0001)                 2.546408290696998E+05,      /* I =136 */
(PID.TID 0000.0001)                 2.647791839299727E+05,      /* I =137 */
(PID.TID 0000.0001)                 2.735321911346108E+05,      /* I =138 */
(PID.TID 0000.0001)                 2.810065951609633E+05,      /* I =139 */
(PID.TID 0000.0001)                 2.872689479506990E+05,      /* I =140 */
(PID.TID 0000.0001)                 2.923599955312932E+05,      /* I =141 */
(PID.TID 0000.0001)                 2.963038832565530E+05,      /* I =142 */
(PID.TID 0000.0001)                 2.991142470004740E+05,      /* I =143 */
(PID.TID 0000.0001)                 3.007982711627968E+05,      /* I =144 */
(PID.TID 0000.0001)                 3.013593857228136E+05,      /* I =145 */
(PID.TID 0000.0001)                 3.007982711627968E+05,      /* I =146 */
(PID.TID 0000.0001)                 2.991142470004740E+05,      /* I =147 */
(PID.TID 0000.0001)                 2.963038832565530E+05,      /* I =148 */
(PID.TID 0000.0001)                 2.923599955312932E+05,      /* I =149 */
(PID.TID 0000.0001)                 2.872689479506990E+05,      /* I =150 */
(PID.TID 0000.0001)                 2.810065951609633E+05,      /* I =151 */
(PID.TID 0000.0001)                 2.735321911346108E+05,      /* I =152 */
(PID.TID 0000.0001)                 2.647791839299727E+05,      /* I =153 */
(PID.TID 0000.0001)                 2.546408290696998E+05,      /* I =154 */
(PID.TID 0000.0001)                 2.429464709770498E+05,      /* I =155 */
(PID.TID 0000.0001)                 2.294195678257306E+05,      /* I =156 */
(PID.TID 0000.0001)                 2.135964483342134E+05,      /* I =157 */
(PID.TID 0000.0001)                 1.946503699269892E+05,      /* I =158 */
(PID.TID 0000.0001)                 1.709574999026266E+05,      /* I =159 */
(PID.TID 0000.0001)                 1.391343389937106E+05,      /* I =160 */
(PID.TID 0000.0001)                 1.114203141013064E+05,      /* I =161 */
(PID.TID 0000.0001)                 1.391343389937106E+05,      /* I =162 */
(PID.TID 0000.0001)                 1.709574999026266E+05,      /* I =163 */
(PID.TID 0000.0001)                 1.946503699269892E+05,      /* I =164 */
(PID.TID 0000.0001)                 2.135964483342134E+05,      /* I =165 */
(PID.TID 0000.0001)                 2.294195678257306E+05,      /* I =166 */
(PID.TID 0000.0001)                 2.429464709770498E+05,      /* I =167 */
(PID.TID 0000.0001)                 2.546408290696998E+05,      /* I =168 */
(PID.TID 0000.0001)                 2.647791839299727E+05,      /* I =169 */
(PID.TID 0000.0001)                 2.735321911346108E+05,      /* I =170 */
(PID.TID 0000.0001)                 2.810065951609633E+05,      /* I =171 */
(PID.TID 0000.0001)                 2.872689479506990E+05,      /* I =172 */
(PID.TID 0000.0001)                 2.923599955312932E+05,      /* I =173 */
(PID.TID 0000.0001)                 2.963038832565530E+05,      /* I =174 */
(PID.TID 0000.0001)                 2.991142470004740E+05,      /* I =175 */
(PID.TID 0000.0001)                 3.007982711627968E+05,      /* I =176 */
(PID.TID 0000.0001)                 3.013593857228136E+05,      /* I =177 */
(PID.TID 0000.0001)                 3.007982711627968E+05,      /* I =178 */
(PID.TID 0000.0001)                 2.991142470004740E+05,      /* I =179 */
(PID.TID 0000.0001)                 2.963038832565530E+05,      /* I =180 */
(PID.TID 0000.0001)                 2.923599955312932E+05,      /* I =181 */
(PID.TID 0000.0001)                 2.872689479506990E+05,      /* I =182 */
(PID.TID 0000.0001)                 2.810065951609633E+05,      /* I =183 */
(PID.TID 0000.0001)                 2.735321911346108E+05,      /* I =184 */
(PID.TID 0000.0001)                 2.647791839299727E+05,      /* I =185 */
(PID.TID 0000.0001)                 2.546408290696998E+05,      /* I =186 */
(PID.TID 0000.0001)                 2.429464709770498E+05,      /* I =187 */
(PID.TID 0000.0001)                 2.294195678257306E+05,      /* I =188 */
(PID.TID 0000.0001)                 2.135964483342134E+05,      /* I =189 */
(PID.TID 0000.0001)                 1.946503699269892E+05,      /* I =190 */
(PID.TID 0000.0001)                 1.709574999026266E+05,      /* I =191 */
(PID.TID 0000.0001)                 1.391343389937106E+05       /* I =192 */
(PID.TID 0000.0001)     ;
(PID.TID 0000.0001) dxC =  /* dxC(1,:,1,:) ( m - cartesian, degrees - spherical ) */
(PID.TID 0000.0001)                 1.114203141013064E+05,      /* J =  1 */
(PID.TID 0000.0001)                 1.549545757850771E+05,      /* J =  2 */
(PID.TID 0000.0001)                 1.829777599966776E+05,      /* J =  3 */
(PID.TID 0000.0001)                 2.042717761866506E+05,      /* J =  4 */
(PID.TID 0000.0001)                 2.216367828252819E+05,      /* J =  5 */
(PID.TID 0000.0001)                 2.363029564123586E+05,      /* J =  6 */
(PID.TID 0000.0001)                 2.489113743322025E+05,      /* J =  7 */
(PID.TID 0000.0001)                 2.598293319150326E+05,      /* J =  8 */
(PID.TID 0000.0001)                 2.692787333338535E+05,      /* J =  9 */
(PID.TID 0000.0001)                 2.773972106720365E+05,      /* J = 10 */
(PID.TID 0000.0001)                 2.842706922224557E+05,      /* J = 11 */
(PID.TID 0000.0001)                 2.899523122489403E+05,      /* J = 12 */
(PID.TID 0000.0001)                 2.944741346384699E+05,      /* J = 13 */
(PID.TID 0000.0001)                 2.978547649292580E+05,      /* J = 14 */
(PID.TID 0000.0001)                 3.001044073506459E+05,      /* J = 15 */
(PID.TID 0000.0001)     2 @  3.012281885409289E+05,             /* J = 16: 17 */
(PID.TID 0000.0001)                 3.001044073506459E+05,      /* J = 18 */
(PID.TID 0000.0001)                 2.978547649292580E+05,      /* J = 19 */
(PID.TID 0000.0001)                 2.944741346384699E+05,      /* J = 20 */
(PID.TID 0000.0001)                 2.899523122489403E+05,      /* J = 21 */
(PID.TID 0000.0001)                 2.842706922224557E+05,      /* J = 22 */
(PID.TID 0000.0001)                 2.773972106720365E+05,      /* J = 23 */
(PID.TID 0000.0001)                 2.692787333338535E+05,      /* J = 24 */
(PID.TID 0000.0001)                 2.598293319150326E+05,      /* J = 25 */
(PID.TID 0000.0001)                 2.489113743322025E+05,      /* J = 26 */
(PID.TID 0000.0001)                 2.363029564123586E+05,      /* J = 27 */
(PID.TID 0000.0001)                 2.216367828252819E+05,      /* J = 28 */
(PID.TID 0000.0001)                 2.042717761866506E+05,      /* J = 29 */
(PID.TID 0000.0001)                 1.829777599966776E+05,      /* J = 30 */
(PID.TID 0000.0001)                 1.549545757850771E+05,      /* J = 31 */
(PID.TID 0000.0001)                 1.114203141013064E+05       /* J = 32 */
(PID.TID 0000.0001)     ;
(PID.TID 0000.0001) dyC =  /* dyC(:,1,:,1) ( m - cartesian, degrees - spherical ) */
(PID.TID 0000.0001)                 1.114203141013064E+05,      /* I =  1 */
(PID.TID 0000.0001)                 1.549545757850771E+05,      /* I =  2 */
(PID.TID 0000.0001)                 1.829777599966776E+05,      /* I =  3 */
(PID.TID 0000.0001)                 2.042717761866506E+05,      /* I =  4 */
(PID.TID 0000.0001)                 2.216367828252819E+05,      /* I =  5 */
(PID.TID 0000.0001)                 2.363029564123586E+05,      /* I =  6 */
(PID.TID 0000.0001)                 2.489113743322025E+05,      /* I =  7 */
(PID.TID 0000.0001)                 2.598293319150326E+05,      /* I =  8 */
(PID.TID 0000.0001)                 2.692787333338535E+05,      /* I =  9 */
(PID.TID 0000.0001)                 2.773972106720365E+05,      /* I = 10 */
(PID.TID 0000.0001)                 2.842706922224557E+05,      /* I = 11 */
(PID.TID 0000.0001)                 2.899523122489403E+05,      /* I = 12 */
(PID.TID 0000.0001)                 2.944741346384699E+05,      /* I = 13 */
(PID.TID 0000.0001)                 2.978547649292580E+05,      /* I = 14 */
(PID.TID 0000.0001)                 3.001044073506459E+05,      /* I = 15 */
(PID.TID 0000.0001)     2 @  3.012281885409289E+05,             /* I = 16: 17 */
(PID.TID 0000.0001)                 3.001044073506459E+05,      /* I = 18 */
(PID.TID 0000.0001)                 2.978547649292580E+05,      /* I = 19 */
(PID.TID 0000.0001)                 2.944741346384699E+05,      /* I = 20 */
(PID.TID 0000.0001)                 2.899523122489403E+05,      /* I = 21 */
(PID.TID 0000.0001)                 2.842706922224557E+05,      /* I = 22 */
(PID.TID 0000.0001)                 2.773972106720365E+05,      /* I = 23 */
(PID.TID 0000.0001)                 2.692787333338535E+05,      /* I = 24 */
(PID.TID 0000.0001)                 2.598293319150326E+05,      /* I = 25 */
(PID.TID 0000.0001)                 2.489113743322025E+05,      /* I = 26 */
(PID.TID 0000.0001)                 2.363029564123586E+05,      /* I = 27 */
(PID.TID 0000.0001)                 2.216367828252819E+05,      /* I = 28 */
(PID.TID 0000.0001)                 2.042717761866506E+05,      /* I = 29 */
(PID.TID 0000.0001)                 1.829777599966776E+05,      /* I = 30 */
(PID.TID 0000.0001)                 1.549545757850771E+05,      /* I = 31 */
(PID.TID 0000.0001)     2 @  1.114203141013064E+05,             /* I = 32: 33 */
(PID.TID 0000.0001)                 1.549545757850771E+05,      /* I = 34 */
(PID.TID 0000.0001)                 1.829777599966776E+05,      /* I = 35 */
(PID.TID 0000.0001)                 2.042717761866506E+05,      /* I = 36 */
(PID.TID 0000.0001)                 2.216367828252819E+05,      /* I = 37 */
(PID.TID 0000.0001)                 2.363029564123586E+05,      /* I = 38 */
(PID.TID 0000.0001)                 2.489113743322025E+05,      /* I = 39 */
(PID.TID 0000.0001)                 2.598293319150326E+05,      /* I = 40 */
(PID.TID 0000.0001)                 2.692787333338535E+05,      /* I = 41 */
(PID.TID 0000.0001)                 2.773972106720365E+05,      /* I = 42 */
(PID.TID 0000.0001)                 2.842706922224557E+05,      /* I = 43 */
(PID.TID 0000.0001)                 2.899523122489403E+05,      /* I = 44 */
(PID.TID 0000.0001)                 2.944741346384699E+05,      /* I = 45 */
(PID.TID 0000.0001)                 2.978547649292580E+05,      /* I = 46 */
(PID.TID 0000.0001)                 3.001044073506459E+05,      /* I = 47 */
(PID.TID 0000.0001)     2 @  3.012281885409289E+05,             /* I = 48: 49 */
(PID.TID 0000.0001)                 3.001044073506459E+05,      /* I = 50 */
(PID.TID 0000.0001)                 2.978547649292580E+05,      /* I = 51 */
(PID.TID 0000.0001)                 2.944741346384699E+05,      /* I = 52 */
(PID.TID 0000.0001)                 2.899523122489403E+05,      /* I = 53 */
(PID.TID 0000.0001)                 2.842706922224557E+05,      /* I = 54 */
(PID.TID 0000.0001)                 2.773972106720365E+05,      /* I = 55 */
(PID.TID 0000.0001)                 2.692787333338535E+05,      /* I = 56 */
(PID.TID 0000.0001)                 2.598293319150326E+05,      /* I = 57 */
(PID.TID 0000.0001)                 2.489113743322025E+05,      /* I = 58 */
(PID.TID 0000.0001)                 2.363029564123586E+05,      /* I = 59 */
(PID.TID 0000.0001)                 2.216367828252819E+05,      /* I = 60 */
(PID.TID 0000.0001)                 2.042717761866506E+05,      /* I = 61 */
(PID.TID 0000.0001)                 1.829777599966776E+05,      /* I = 62 */
(PID.TID 0000.0001)                 1.549545757850771E+05,      /* I = 63 */
(PID.TID 0000.0001)     2 @  1.114203141013064E+05,             /* I = 64: 65 */
(PID.TID 0000.0001)                 1.549545757850771E+05,      /* I = 66 */
(PID.TID 0000.0001)                 1.829777599966776E+05,      /* I = 67 */
(PID.TID 0000.0001)                 2.042717761866506E+05,      /* I = 68 */
(PID.TID 0000.0001)                 2.216367828252819E+05,      /* I = 69 */
(PID.TID 0000.0001)                 2.363029564123586E+05,      /* I = 70 */
(PID.TID 0000.0001)                 2.489113743322025E+05,      /* I = 71 */
(PID.TID 0000.0001)                 2.598293319150326E+05,      /* I = 72 */
(PID.TID 0000.0001)                 2.692787333338535E+05,      /* I = 73 */
(PID.TID 0000.0001)                 2.773972106720365E+05,      /* I = 74 */
(PID.TID 0000.0001)                 2.842706922224557E+05,      /* I = 75 */
(PID.TID 0000.0001)                 2.899523122489403E+05,      /* I = 76 */
(PID.TID 0000.0001)                 2.944741346384699E+05,      /* I = 77 */
(PID.TID 0000.0001)                 2.978547649292580E+05,      /* I = 78 */
(PID.TID 0000.0001)                 3.001044073506459E+05,      /* I = 79 */
(PID.TID 0000.0001)     2 @  3.012281885409289E+05,             /* I = 80: 81 */
(PID.TID 0000.0001)                 3.001044073506459E+05,      /* I = 82 */
(PID.TID 0000.0001)                 2.978547649292580E+05,      /* I = 83 */
(PID.TID 0000.0001)                 2.944741346384699E+05,      /* I = 84 */
(PID.TID 0000.0001)                 2.899523122489403E+05,      /* I = 85 */
(PID.TID 0000.0001)                 2.842706922224557E+05,      /* I = 86 */
(PID.TID 0000.0001)                 2.773972106720365E+05,      /* I = 87 */
(PID.TID 0000.0001)                 2.692787333338535E+05,      /* I = 88 */
(PID.TID 0000.0001)                 2.598293319150326E+05,      /* I = 89 */
(PID.TID 0000.0001)                 2.489113743322025E+05,      /* I = 90 */
(PID.TID 0000.0001)                 2.363029564123586E+05,      /* I = 91 */
(PID.TID 0000.0001)                 2.216367828252819E+05,      /* I = 92 */
(PID.TID 0000.0001)                 2.042717761866506E+05,      /* I = 93 */
(PID.TID 0000.0001)                 1.829777599966776E+05,      /* I = 94 */
(PID.TID 0000.0001)                 1.549545757850771E+05,      /* I = 95 */
(PID.TID 0000.0001)     2 @  1.114203141013064E+05,             /* I = 96: 97 */
(PID.TID 0000.0001)                 1.549545757850771E+05,      /* I = 98 */
(PID.TID 0000.0001)                 1.829777599966776E+05,      /* I = 99 */
(PID.TID 0000.0001)                 2.042717761866506E+05,      /* I =100 */
(PID.TID 0000.0001)                 2.216367828252819E+05,      /* I =101 */
(PID.TID 0000.0001)                 2.363029564123586E+05,      /* I =102 */
(PID.TID 0000.0001)                 2.489113743322025E+05,      /* I =103 */
(PID.TID 0000.0001)                 2.598293319150326E+05,      /* I =104 */
(PID.TID 0000.0001)                 2.692787333338535E+05,      /* I =105 */
(PID.TID 0000.0001)                 2.773972106720365E+05,      /* I =106 */
(PID.TID 0000.0001)                 2.842706922224557E+05,      /* I =107 */
(PID.TID 0000.0001)                 2.899523122489403E+05,      /* I =108 */
(PID.TID 0000.0001)                 2.944741346384699E+05,      /* I =109 */
(PID.TID 0000.0001)                 2.978547649292580E+05,      /* I =110 */
(PID.TID 0000.0001)                 3.001044073506459E+05,      /* I =111 */
(PID.TID 0000.0001)     2 @  3.012281885409289E+05,             /* I =112:113 */
(PID.TID 0000.0001)                 3.001044073506459E+05,      /* I =114 */
(PID.TID 0000.0001)                 2.978547649292580E+05,      /* I =115 */
(PID.TID 0000.0001)                 2.944741346384699E+05,      /* I =116 */
(PID.TID 0000.0001)                 2.899523122489403E+05,      /* I =117 */
(PID.TID 0000.0001)                 2.842706922224557E+05,      /* I =118 */
(PID.TID 0000.0001)                 2.773972106720365E+05,      /* I =119 */
(PID.TID 0000.0001)                 2.692787333338535E+05,      /* I =120 */
(PID.TID 0000.0001)                 2.598293319150326E+05,      /* I =121 */
(PID.TID 0000.0001)                 2.489113743322025E+05,      /* I =122 */
(PID.TID 0000.0001)                 2.363029564123586E+05,      /* I =123 */
(PID.TID 0000.0001)                 2.216367828252819E+05,      /* I =124 */
(PID.TID 0000.0001)                 2.042717761866506E+05,      /* I =125 */
(PID.TID 0000.0001)                 1.829777599966776E+05,      /* I =126 */
(PID.TID 0000.0001)                 1.549545757850771E+05,      /* I =127 */
(PID.TID 0000.0001)     2 @  1.114203141013064E+05,             /* I =128:129 */
(PID.TID 0000.0001)                 1.549545757850771E+05,      /* I =130 */
(PID.TID 0000.0001)                 1.829777599966776E+05,      /* I =131 */
(PID.TID 0000.0001)                 2.042717761866506E+05,      /* I =132 */
(PID.TID 0000.0001)                 2.216367828252819E+05,      /* I =133 */
(PID.TID 0000.0001)                 2.363029564123586E+05,      /* I =134 */
(PID.TID 0000.0001)                 2.489113743322025E+05,      /* I =135 */
(PID.TID 0000.0001)                 2.598293319150326E+05,      /* I =136 */
(PID.TID 0000.0001)                 2.692787333338535E+05,      /* I =137 */
(PID.TID 0000.0001)                 2.773972106720365E+05,      /* I =138 */
(PID.TID 0000.0001)                 2.842706922224557E+05,      /* I =139 */
(PID.TID 0000.0001)                 2.899523122489403E+05,      /* I =140 */
(PID.TID 0000.0001)                 2.944741346384699E+05,      /* I =141 */
(PID.TID 0000.0001)                 2.978547649292580E+05,      /* I =142 */
(PID.TID 0000.0001)                 3.001044073506459E+05,      /* I =143 */
(PID.TID 0000.0001)     2 @  3.012281885409289E+05,             /* I =144:145 */
(PID.TID 0000.0001)                 3.001044073506459E+05,      /* I =146 */
(PID.TID 0000.0001)                 2.978547649292580E+05,      /* I =147 */
(PID.TID 0000.0001)                 2.944741346384699E+05,      /* I =148 */
(PID.TID 0000.0001)                 2.899523122489403E+05,      /* I =149 */
(PID.TID 0000.0001)                 2.842706922224557E+05,      /* I =150 */
(PID.TID 0000.0001)                 2.773972106720365E+05,      /* I =151 */
(PID.TID 0000.0001)                 2.692787333338535E+05,      /* I =152 */
(PID.TID 0000.0001)                 2.598293319150326E+05,      /* I =153 */
(PID.TID 0000.0001)                 2.489113743322025E+05,      /* I =154 */
(PID.TID 0000.0001)                 2.363029564123586E+05,      /* I =155 */
(PID.TID 0000.0001)                 2.216367828252819E+05,      /* I =156 */
(PID.TID 0000.0001)                 2.042717761866506E+05,      /* I =157 */
(PID.TID 0000.0001)                 1.829777599966776E+05,      /* I =158 */
(PID.TID 0000.0001)                 1.549545757850771E+05,      /* I =159 */
(PID.TID 0000.0001)     2 @  1.114203141013064E+05,             /* I =160:161 */
(PID.TID 0000.0001)                 1.549545757850771E+05,      /* I =162 */
(PID.TID 0000.0001)                 1.829777599966776E+05,      /* I =163 */
(PID.TID 0000.0001)                 2.042717761866506E+05,      /* I =164 */
(PID.TID 0000.0001)                 2.216367828252819E+05,      /* I =165 */
(PID.TID 0000.0001)                 2.363029564123586E+05,      /* I =166 */
(PID.TID 0000.0001)                 2.489113743322025E+05,      /* I =167 */
(PID.TID 0000.0001)                 2.598293319150326E+05,      /* I =168 */
(PID.TID 0000.0001)                 2.692787333338535E+05,      /* I =169 */
(PID.TID 0000.0001)                 2.773972106720365E+05,      /* I =170 */
(PID.TID 0000.0001)                 2.842706922224557E+05,      /* I =171 */
(PID.TID 0000.0001)                 2.899523122489403E+05,      /* I =172 */
(PID.TID 0000.0001)                 2.944741346384699E+05,      /* I =173 */
(PID.TID 0000.0001)                 2.978547649292580E+05,      /* I =174 */
(PID.TID 0000.0001)                 3.001044073506459E+05,      /* I =175 */
(PID.TID 0000.0001)     2 @  3.012281885409289E+05,             /* I =176:177 */
(PID.TID 0000.0001)                 3.001044073506459E+05,      /* I =178 */
(PID.TID 0000.0001)                 2.978547649292580E+05,      /* I =179 */
(PID.TID 0000.0001)                 2.944741346384699E+05,      /* I =180 */
(PID.TID 0000.0001)                 2.899523122489403E+05,      /* I =181 */
(PID.TID 0000.0001)                 2.842706922224557E+05,      /* I =182 */
(PID.TID 0000.0001)                 2.773972106720365E+05,      /* I =183 */
(PID.TID 0000.0001)                 2.692787333338535E+05,      /* I =184 */
(PID.TID 0000.0001)                 2.598293319150326E+05,      /* I =185 */
(PID.TID 0000.0001)                 2.489113743322025E+05,      /* I =186 */
(PID.TID 0000.0001)                 2.363029564123586E+05,      /* I =187 */
(PID.TID 0000.0001)                 2.216367828252819E+05,      /* I =188 */
(PID.TID 0000.0001)                 2.042717761866506E+05,      /* I =189 */
(PID.TID 0000.0001)                 1.829777599966776E+05,      /* I =190 */
(PID.TID 0000.0001)                 1.549545757850771E+05,      /* I =191 */
(PID.TID 0000.0001)                 1.114203141013064E+05       /* I =192 */
(PID.TID 0000.0001)     ;
(PID.TID 0000.0001) dyC =  /* dyC(1,:,1,:) ( m - cartesian, degrees - spherical ) */
(PID.TID 0000.0001)                 1.114203141013064E+05,      /* J =  1 */
(PID.TID 0000.0001)                 1.391343389937106E+05,      /* J =  2 */
(PID.TID 0000.0001)                 1.709574999026266E+05,      /* J =  3 */
(PID.TID 0000.0001)                 1.946503699269892E+05,      /* J =  4 */
(PID.TID 0000.0001)                 2.135964483342134E+05,      /* J =  5 */
(PID.TID 0000.0001)                 2.294195678257306E+05,      /* J =  6 */
(PID.TID 0000.0001)                 2.429464709770498E+05,      /* J =  7 */
(PID.TID 0000.0001)                 2.546408290696998E+05,      /* J =  8 */
(PID.TID 0000.0001)                 2.647791839299727E+05,      /* J =  9 */
(PID.TID 0000.0001)                 2.735321911346108E+05,      /* J = 10 */
(PID.TID 0000.0001)                 2.810065951609633E+05,      /* J = 11 */
(PID.TID 0000.0001)                 2.872689479506990E+05,      /* J = 12 */
(PID.TID 0000.0001)                 2.923599955312932E+05,      /* J = 13 */
(PID.TID 0000.0001)                 2.963038832565530E+05,      /* J = 14 */
(PID.TID 0000.0001)                 2.991142470004740E+05,      /* J = 15 */
(PID.TID 0000.0001)                 3.007982711627968E+05,      /* J = 16 */
(PID.TID 0000.0001)                 3.013593857228136E+05,      /* J = 17 */
(PID.TID 0000.0001)                 3.007982711627968E+05,      /* J = 18 */
(PID.TID 0000.0001)                 2.991142470004740E+05,      /* J = 19 */
(PID.TID 0000.0001)                 2.963038832565530E+05,      /* J = 20 */
(PID.TID 0000.0001)                 2.923599955312932E+05,      /* J = 21 */
(PID.TID 0000.0001)                 2.872689479506990E+05,      /* J = 22 */
(PID.TID 0000.0001)                 2.810065951609633E+05,      /* J = 23 */
(PID.TID 0000.0001)                 2.735321911346108E+05,      /* J = 24 */
(PID.TID 0000.0001)                 2.647791839299727E+05,      /* J = 25 */
(PID.TID 0000.0001)                 2.546408290696998E+05,      /* J = 26 */
(PID.TID 0000.0001)                 2.429464709770498E+05,      /* J = 27 */
(PID.TID 0000.0001)                 2.294195678257306E+05,      /* J = 28 */
(PID.TID 0000.0001)                 2.135964483342134E+05,      /* J = 29 */
(PID.TID 0000.0001)                 1.946503699269892E+05,      /* J = 30 */
(PID.TID 0000.0001)                 1.709574999026266E+05,      /* J = 31 */
(PID.TID 0000.0001)                 1.391343389937106E+05       /* J = 32 */
(PID.TID 0000.0001)     ;
(PID.TID 0000.0001) dxV =  /* dxV(:,1,:,1) ( m - cartesian, degrees - spherical ) */
(PID.TID 0000.0001)                 8.015229982413632E+04,      /* I =  1 */
(PID.TID 0000.0001)                 1.333130744933864E+05,      /* I =  2 */
(PID.TID 0000.0001)                 1.691744868129062E+05,      /* I =  3 */
(PID.TID 0000.0001)                 1.937548202849060E+05,      /* I =  4 */
(PID.TID 0000.0001)                 2.130490056267208E+05,      /* I =  5 */
(PID.TID 0000.0001)                 2.290479919481738E+05,      /* I =  6 */
(PID.TID 0000.0001)                 2.426774358027003E+05,      /* I =  7 */
(PID.TID 0000.0001)                 2.544372984215561E+05,      /* I =  8 */
(PID.TID 0000.0001)                 2.646201463834826E+05,      /* I =  9 */
(PID.TID 0000.0001)                 2.734046499619031E+05,      /* I = 10 */
(PID.TID 0000.0001)                 2.809019351693761E+05,      /* I = 11 */
(PID.TID 0000.0001)                 2.871811105274442E+05,      /* I = 12 */
(PID.TID 0000.0001)                 2.922844849381675E+05,      /* I = 13 */
(PID.TID 0000.0001)                 2.962371870847826E+05,      /* I = 14 */
(PID.TID 0000.0001)                 2.990534755671296E+05,      /* I = 15 */
(PID.TID 0000.0001)                 3.007409169495504E+05,      /* I = 16 */
(PID.TID 0000.0001)                 3.013031486919771E+05,      /* I = 17 */
(PID.TID 0000.0001)                 3.007409169495504E+05,      /* I = 18 */
(PID.TID 0000.0001)                 2.990534755671296E+05,      /* I = 19 */
(PID.TID 0000.0001)                 2.962371870847826E+05,      /* I = 20 */
(PID.TID 0000.0001)                 2.922844849381675E+05,      /* I = 21 */
(PID.TID 0000.0001)                 2.871811105274442E+05,      /* I = 22 */
(PID.TID 0000.0001)                 2.809019351693761E+05,      /* I = 23 */
(PID.TID 0000.0001)                 2.734046499619031E+05,      /* I = 24 */
(PID.TID 0000.0001)                 2.646201463834826E+05,      /* I = 25 */
(PID.TID 0000.0001)                 2.544372984215561E+05,      /* I = 26 */
(PID.TID 0000.0001)                 2.426774358027003E+05,      /* I = 27 */
(PID.TID 0000.0001)                 2.290479919481738E+05,      /* I = 28 */
(PID.TID 0000.0001)                 2.130490056267208E+05,      /* I = 29 */
(PID.TID 0000.0001)                 1.937548202849060E+05,      /* I = 30 */
(PID.TID 0000.0001)                 1.691744868129062E+05,      /* I = 31 */
(PID.TID 0000.0001)                 1.333130744933864E+05,      /* I = 32 */
(PID.TID 0000.0001)                 8.015229982413632E+04,      /* I = 33 */
(PID.TID 0000.0001)                 1.333130744933864E+05,      /* I = 34 */
(PID.TID 0000.0001)                 1.691744868129062E+05,      /* I = 35 */
(PID.TID 0000.0001)                 1.937548202849060E+05,      /* I = 36 */
(PID.TID 0000.0001)                 2.130490056267208E+05,      /* I = 37 */
(PID.TID 0000.0001)                 2.290479919481738E+05,      /* I = 38 */
(PID.TID 0000.0001)                 2.426774358027003E+05,      /* I = 39 */
(PID.TID 0000.0001)                 2.544372984215561E+05,      /* I = 40 */
(PID.TID 0000.0001)                 2.646201463834826E+05,      /* I = 41 */
(PID.TID 0000.0001)                 2.734046499619031E+05,      /* I = 42 */
(PID.TID 0000.0001)                 2.809019351693761E+05,      /* I = 43 */
(PID.TID 0000.0001)                 2.871811105274442E+05,      /* I = 44 */
(PID.TID 0000.0001)                 2.922844849381675E+05,      /* I = 45 */
(PID.TID 0000.0001)                 2.962371870847826E+05,      /* I = 46 */
(PID.TID 0000.0001)                 2.990534755671296E+05,      /* I = 47 */
(PID.TID 0000.0001)                 3.007409169495504E+05,      /* I = 48 */
(PID.TID 0000.0001)                 3.013031486919771E+05,      /* I = 49 */
(PID.TID 0000.0001)                 3.007409169495504E+05,      /* I = 50 */
(PID.TID 0000.0001)                 2.990534755671296E+05,      /* I = 51 */
(PID.TID 0000.0001)                 2.962371870847826E+05,      /* I = 52 */
(PID.TID 0000.0001)                 2.922844849381675E+05,      /* I = 53 */
(PID.TID 0000.0001)                 2.871811105274442E+05,      /* I = 54 */
(PID.TID 0000.0001)                 2.809019351693761E+05,      /* I = 55 */
(PID.TID 0000.0001)                 2.734046499619031E+05,      /* I = 56 */
(PID.TID 0000.0001)                 2.646201463834826E+05,      /* I = 57 */
(PID.TID 0000.0001)                 2.544372984215561E+05,      /* I = 58 */
(PID.TID 0000.0001)                 2.426774358027003E+05,      /* I = 59 */
(PID.TID 0000.0001)                 2.290479919481738E+05,      /* I = 60 */
(PID.TID 0000.0001)                 2.130490056267208E+05,      /* I = 61 */
(PID.TID 0000.0001)                 1.937548202849060E+05,      /* I = 62 */
(PID.TID 0000.0001)                 1.691744868129062E+05,      /* I = 63 */
(PID.TID 0000.0001)                 1.333130744933864E+05,      /* I = 64 */
(PID.TID 0000.0001)                 8.015229982413632E+04,      /* I = 65 */
(PID.TID 0000.0001)                 1.333130744933864E+05,      /* I = 66 */
(PID.TID 0000.0001)                 1.691744868129062E+05,      /* I = 67 */
(PID.TID 0000.0001)                 1.937548202849060E+05,      /* I = 68 */
(PID.TID 0000.0001)                 2.130490056267208E+05,      /* I = 69 */
(PID.TID 0000.0001)                 2.290479919481738E+05,      /* I = 70 */
(PID.TID 0000.0001)                 2.426774358027003E+05,      /* I = 71 */
(PID.TID 0000.0001)                 2.544372984215561E+05,      /* I = 72 */
(PID.TID 0000.0001)                 2.646201463834826E+05,      /* I = 73 */
(PID.TID 0000.0001)                 2.734046499619031E+05,      /* I = 74 */
(PID.TID 0000.0001)                 2.809019351693761E+05,      /* I = 75 */
(PID.TID 0000.0001)                 2.871811105274442E+05,      /* I = 76 */
(PID.TID 0000.0001)                 2.922844849381675E+05,      /* I = 77 */
(PID.TID 0000.0001)                 2.962371870847826E+05,      /* I = 78 */
(PID.TID 0000.0001)                 2.990534755671296E+05,      /* I = 79 */
(PID.TID 0000.0001)                 3.007409169495504E+05,      /* I = 80 */
(PID.TID 0000.0001)                 3.013031486919771E+05,      /* I = 81 */
(PID.TID 0000.0001)                 3.007409169495504E+05,      /* I = 82 */
(PID.TID 0000.0001)                 2.990534755671296E+05,      /* I = 83 */
(PID.TID 0000.0001)                 2.962371870847826E+05,      /* I = 84 */
(PID.TID 0000.0001)                 2.922844849381675E+05,      /* I = 85 */
(PID.TID 0000.0001)                 2.871811105274442E+05,      /* I = 86 */
(PID.TID 0000.0001)                 2.809019351693761E+05,      /* I = 87 */
(PID.TID 0000.0001)                 2.734046499619031E+05,      /* I = 88 */
(PID.TID 0000.0001)                 2.646201463834826E+05,      /* I = 89 */
(PID.TID 0000.0001)                 2.544372984215561E+05,      /* I = 90 */
(PID.TID 0000.0001)                 2.426774358027003E+05,      /* I = 91 */
(PID.TID 0000.0001)                 2.290479919481738E+05,      /* I = 92 */
(PID.TID 0000.0001)                 2.130490056267208E+05,      /* I = 93 */
(PID.TID 0000.0001)                 1.937548202849060E+05,      /* I = 94 */
(PID.TID 0000.0001)                 1.691744868129062E+05,      /* I = 95 */
(PID.TID 0000.0001)                 1.333130744933864E+05,      /* I = 96 */
(PID.TID 0000.0001)                 8.015229982413632E+04,      /* I = 97 */
(PID.TID 0000.0001)                 1.333130744933864E+05,      /* I = 98 */
(PID.TID 0000.0001)                 1.691744868129062E+05,      /* I = 99 */
(PID.TID 0000.0001)                 1.937548202849060E+05,      /* I =100 */
(PID.TID 0000.0001)                 2.130490056267208E+05,      /* I =101 */
(PID.TID 0000.0001)                 2.290479919481738E+05,      /* I =102 */
(PID.TID 0000.0001)                 2.426774358027003E+05,      /* I =103 */
(PID.TID 0000.0001)                 2.544372984215561E+05,      /* I =104 */
(PID.TID 0000.0001)                 2.646201463834826E+05,      /* I =105 */
(PID.TID 0000.0001)                 2.734046499619031E+05,      /* I =106 */
(PID.TID 0000.0001)                 2.809019351693761E+05,      /* I =107 */
(PID.TID 0000.0001)                 2.871811105274442E+05,      /* I =108 */
(PID.TID 0000.0001)                 2.922844849381675E+05,      /* I =109 */
(PID.TID 0000.0001)                 2.962371870847826E+05,      /* I =110 */
(PID.TID 0000.0001)                 2.990534755671296E+05,      /* I =111 */
(PID.TID 0000.0001)                 3.007409169495504E+05,      /* I =112 */
(PID.TID 0000.0001)                 3.013031486919771E+05,      /* I =113 */
(PID.TID 0000.0001)                 3.007409169495504E+05,      /* I =114 */
(PID.TID 0000.0001)                 2.990534755671296E+05,      /* I =115 */
(PID.TID 0000.0001)                 2.962371870847826E+05,      /* I =116 */
(PID.TID 0000.0001)                 2.922844849381675E+05,      /* I =117 */
(PID.TID 0000.0001)                 2.871811105274442E+05,      /* I =118 */
(PID.TID 0000.0001)                 2.809019351693761E+05,      /* I =119 */
(PID.TID 0000.0001)                 2.734046499619031E+05,      /* I =120 */
(PID.TID 0000.0001)                 2.646201463834826E+05,      /* I =121 */
(PID.TID 0000.0001)                 2.544372984215561E+05,      /* I =122 */
(PID.TID 0000.0001)                 2.426774358027003E+05,      /* I =123 */
(PID.TID 0000.0001)                 2.290479919481738E+05,      /* I =124 */
(PID.TID 0000.0001)                 2.130490056267208E+05,      /* I =125 */
(PID.TID 0000.0001)                 1.937548202849060E+05,      /* I =126 */
(PID.TID 0000.0001)                 1.691744868129062E+05,      /* I =127 */
(PID.TID 0000.0001)                 1.333130744933864E+05,      /* I =128 */
(PID.TID 0000.0001)                 8.015229982413632E+04,      /* I =129 */
(PID.TID 0000.0001)                 1.333130744933864E+05,      /* I =130 */
(PID.TID 0000.0001)                 1.691744868129062E+05,      /* I =131 */
(PID.TID 0000.0001)                 1.937548202849060E+05,      /* I =132 */
(PID.TID 0000.0001)                 2.130490056267208E+05,      /* I =133 */
(PID.TID 0000.0001)                 2.290479919481738E+05,      /* I =134 */
(PID.TID 0000.0001)                 2.426774358027003E+05,      /* I =135 */
(PID.TID 0000.0001)                 2.544372984215561E+05,      /* I =136 */
(PID.TID 0000.0001)                 2.646201463834826E+05,      /* I =137 */
(PID.TID 0000.0001)                 2.734046499619031E+05,      /* I =138 */
(PID.TID 0000.0001)                 2.809019351693761E+05,      /* I =139 */
(PID.TID 0000.0001)                 2.871811105274442E+05,      /* I =140 */
(PID.TID 0000.0001)                 2.922844849381675E+05,      /* I =141 */
(PID.TID 0000.0001)                 2.962371870847826E+05,      /* I =142 */
(PID.TID 0000.0001)                 2.990534755671296E+05,      /* I =143 */
(PID.TID 0000.0001)                 3.007409169495504E+05,      /* I =144 */
(PID.TID 0000.0001)                 3.013031486919771E+05,      /* I =145 */
(PID.TID 0000.0001)                 3.007409169495504E+05,      /* I =146 */
(PID.TID 0000.0001)                 2.990534755671296E+05,      /* I =147 */
(PID.TID 0000.0001)                 2.962371870847826E+05,      /* I =148 */
(PID.TID 0000.0001)                 2.922844849381675E+05,      /* I =149 */
(PID.TID 0000.0001)                 2.871811105274442E+05,      /* I =150 */
(PID.TID 0000.0001)                 2.809019351693761E+05,      /* I =151 */
(PID.TID 0000.0001)                 2.734046499619031E+05,      /* I =152 */
(PID.TID 0000.0001)                 2.646201463834826E+05,      /* I =153 */
(PID.TID 0000.0001)                 2.544372984215561E+05,      /* I =154 */
(PID.TID 0000.0001)                 2.426774358027003E+05,      /* I =155 */
(PID.TID 0000.0001)                 2.290479919481738E+05,      /* I =156 */
(PID.TID 0000.0001)                 2.130490056267208E+05,      /* I =157 */
(PID.TID 0000.0001)                 1.937548202849060E+05,      /* I =158 */
(PID.TID 0000.0001)                 1.691744868129062E+05,      /* I =159 */
(PID.TID 0000.0001)                 1.333130744933864E+05,      /* I =160 */
(PID.TID 0000.0001)                 8.015229982413632E+04,      /* I =161 */
(PID.TID 0000.0001)                 1.333130744933864E+05,      /* I =162 */
(PID.TID 0000.0001)                 1.691744868129062E+05,      /* I =163 */
(PID.TID 0000.0001)                 1.937548202849060E+05,      /* I =164 */
(PID.TID 0000.0001)                 2.130490056267208E+05,      /* I =165 */
(PID.TID 0000.0001)                 2.290479919481738E+05,      /* I =166 */
(PID.TID 0000.0001)                 2.426774358027003E+05,      /* I =167 */
(PID.TID 0000.0001)                 2.544372984215561E+05,      /* I =168 */
(PID.TID 0000.0001)                 2.646201463834826E+05,      /* I =169 */
(PID.TID 0000.0001)                 2.734046499619031E+05,      /* I =170 */
(PID.TID 0000.0001)                 2.809019351693761E+05,      /* I =171 */
(PID.TID 0000.0001)                 2.871811105274442E+05,      /* I =172 */
(PID.TID 0000.0001)                 2.922844849381675E+05,      /* I =173 */
(PID.TID 0000.0001)                 2.962371870847826E+05,      /* I =174 */
(PID.TID 0000.0001)                 2.990534755671296E+05,      /* I =175 */
(PID.TID 0000.0001)                 3.007409169495504E+05,      /* I =176 */
(PID.TID 0000.0001)                 3.013031486919771E+05,      /* I =177 */
(PID.TID 0000.0001)                 3.007409169495504E+05,      /* I =178 */
(PID.TID 0000.0001)                 2.990534755671296E+05,      /* I =179 */
(PID.TID 0000.0001)                 2.962371870847826E+05,      /* I =180 */
(PID.TID 0000.0001)                 2.922844849381675E+05,      /* I =181 */
(PID.TID 0000.0001)                 2.871811105274442E+05,      /* I =182 */
(PID.TID 0000.0001)                 2.809019351693761E+05,      /* I =183 */
(PID.TID 0000.0001)                 2.734046499619031E+05,      /* I =184 */
(PID.TID 0000.0001)                 2.646201463834826E+05,      /* I =185 */
(PID.TID 0000.0001)                 2.544372984215561E+05,      /* I =186 */
(PID.TID 0000.0001)                 2.426774358027003E+05,      /* I =187 */
(PID.TID 0000.0001)                 2.290479919481738E+05,      /* I =188 */
(PID.TID 0000.0001)                 2.130490056267208E+05,      /* I =189 */
(PID.TID 0000.0001)                 1.937548202849060E+05,      /* I =190 */
(PID.TID 0000.0001)                 1.691744868129062E+05,      /* I =191 */
(PID.TID 0000.0001)                 1.333130744933864E+05       /* I =192 */
(PID.TID 0000.0001)     ;
(PID.TID 0000.0001) dxV =  /* dxV(1,:,1,:) ( m - cartesian, degrees - spherical ) */
(PID.TID 0000.0001)                 8.015229982413632E+04,      /* J =  1 */
(PID.TID 0000.0001)                 1.362652340208229E+05,      /* J =  2 */
(PID.TID 0000.0001)                 1.701080315742101E+05,      /* J =  3 */
(PID.TID 0000.0001)                 1.942331448101592E+05,      /* J =  4 */
(PID.TID 0000.0001)                 2.133486626971531E+05,      /* J =  5 */
(PID.TID 0000.0001)                 2.292584591272880E+05,      /* J =  6 */
(PID.TID 0000.0001)                 2.428369969078989E+05,      /* J =  7 */
(PID.TID 0000.0001)                 2.545652950875683E+05,      /* J =  8 */
(PID.TID 0000.0001)                 2.647274964828301E+05,      /* J =  9 */
(PID.TID 0000.0001)                 2.734980225206389E+05,      /* J = 10 */
(PID.TID 0000.0001)                 2.809856491525217E+05,      /* J = 11 */
(PID.TID 0000.0001)                 2.872580915202295E+05,      /* J = 12 */
(PID.TID 0000.0001)                 2.923567890694162E+05,      /* J = 13 */
(PID.TID 0000.0001)                 2.963063101754721E+05,      /* J = 14 */
(PID.TID 0000.0001)                 2.991205495886625E+05,      /* J = 15 */
(PID.TID 0000.0001)                 3.008068453676764E+05,      /* J = 16 */
(PID.TID 0000.0001)                 3.013686170436881E+05,      /* J = 17 */
(PID.TID 0000.0001)                 3.008068453676764E+05,      /* J = 18 */
(PID.TID 0000.0001)                 2.991205495886625E+05,      /* J = 19 */
(PID.TID 0000.0001)                 2.963063101754721E+05,      /* J = 20 */
(PID.TID 0000.0001)                 2.923567890694162E+05,      /* J = 21 */
(PID.TID 0000.0001)                 2.872580915202295E+05,      /* J = 22 */
(PID.TID 0000.0001)                 2.809856491525217E+05,      /* J = 23 */
(PID.TID 0000.0001)                 2.734980225206389E+05,      /* J = 24 */
(PID.TID 0000.0001)                 2.647274964828301E+05,      /* J = 25 */
(PID.TID 0000.0001)                 2.545652950875683E+05,      /* J = 26 */
(PID.TID 0000.0001)                 2.428369969078989E+05,      /* J = 27 */
(PID.TID 0000.0001)                 2.292584591272880E+05,      /* J = 28 */
(PID.TID 0000.0001)                 2.133486626971531E+05,      /* J = 29 */
(PID.TID 0000.0001)                 1.942331448101592E+05,      /* J = 30 */
(PID.TID 0000.0001)                 1.701080315742101E+05,      /* J = 31 */
(PID.TID 0000.0001)                 1.362652340208229E+05       /* J = 32 */
(PID.TID 0000.0001)     ;
(PID.TID 0000.0001) dyU =  /* dyU(:,1,:,1) ( m - cartesian, degrees - spherical ) */
(PID.TID 0000.0001)                 8.015229982413632E+04,      /* I =  1 */
(PID.TID 0000.0001)                 1.362652340208229E+05,      /* I =  2 */
(PID.TID 0000.0001)                 1.701080315742101E+05,      /* I =  3 */
(PID.TID 0000.0001)                 1.942331448101592E+05,      /* I =  4 */
(PID.TID 0000.0001)                 2.133486626971531E+05,      /* I =  5 */
(PID.TID 0000.0001)                 2.292584591272880E+05,      /* I =  6 */
(PID.TID 0000.0001)                 2.428369969078989E+05,      /* I =  7 */
(PID.TID 0000.0001)                 2.545652950875683E+05,      /* I =  8 */
(PID.TID 0000.0001)                 2.647274964828301E+05,      /* I =  9 */
(PID.TID 0000.0001)                 2.734980225206389E+05,      /* I = 10 */
(PID.TID 0000.0001)                 2.809856491525217E+05,      /* I = 11 */
(PID.TID 0000.0001)                 2.872580915202295E+05,      /* I = 12 */
(PID.TID 0000.0001)                 2.923567890694162E+05,      /* I = 13 */
(PID.TID 0000.0001)                 2.963063101754721E+05,      /* I = 14 */
(PID.TID 0000.0001)                 2.991205495886625E+05,      /* I = 15 */
(PID.TID 0000.0001)                 3.008068453676764E+05,      /* I = 16 */
(PID.TID 0000.0001)                 3.013686170436881E+05,      /* I = 17 */
(PID.TID 0000.0001)                 3.008068453676764E+05,      /* I = 18 */
(PID.TID 0000.0001)                 2.991205495886625E+05,      /* I = 19 */
(PID.TID 0000.0001)                 2.963063101754721E+05,      /* I = 20 */
(PID.TID 0000.0001)                 2.923567890694162E+05,      /* I = 21 */
(PID.TID 0000.0001)                 2.872580915202295E+05,      /* I = 22 */
(PID.TID 0000.0001)                 2.809856491525217E+05,      /* I = 23 */
(PID.TID 0000.0001)                 2.734980225206389E+05,      /* I = 24 */
(PID.TID 0000.0001)                 2.647274964828301E+05,      /* I = 25 */
(PID.TID 0000.0001)                 2.545652950875683E+05,      /* I = 26 */
(PID.TID 0000.0001)                 2.428369969078989E+05,      /* I = 27 */
(PID.TID 0000.0001)                 2.292584591272880E+05,      /* I = 28 */
(PID.TID 0000.0001)                 2.133486626971531E+05,      /* I = 29 */
(PID.TID 0000.0001)                 1.942331448101592E+05,      /* I = 30 */
(PID.TID 0000.0001)                 1.701080315742101E+05,      /* I = 31 */
(PID.TID 0000.0001)                 1.362652340208229E+05,      /* I = 32 */
(PID.TID 0000.0001)                 8.015229982413632E+04,      /* I = 33 */
(PID.TID 0000.0001)                 1.362652340208229E+05,      /* I = 34 */
(PID.TID 0000.0001)                 1.701080315742101E+05,      /* I = 35 */
(PID.TID 0000.0001)                 1.942331448101592E+05,      /* I = 36 */
(PID.TID 0000.0001)                 2.133486626971531E+05,      /* I = 37 */
(PID.TID 0000.0001)                 2.292584591272880E+05,      /* I = 38 */
(PID.TID 0000.0001)                 2.428369969078989E+05,      /* I = 39 */
(PID.TID 0000.0001)                 2.545652950875683E+05,      /* I = 40 */
(PID.TID 0000.0001)                 2.647274964828301E+05,      /* I = 41 */
(PID.TID 0000.0001)                 2.734980225206389E+05,      /* I = 42 */
(PID.TID 0000.0001)                 2.809856491525217E+05,      /* I = 43 */
(PID.TID 0000.0001)                 2.872580915202295E+05,      /* I = 44 */
(PID.TID 0000.0001)                 2.923567890694162E+05,      /* I = 45 */
(PID.TID 0000.0001)                 2.963063101754721E+05,      /* I = 46 */
(PID.TID 0000.0001)                 2.991205495886625E+05,      /* I = 47 */
(PID.TID 0000.0001)                 3.008068453676764E+05,      /* I = 48 */
(PID.TID 0000.0001)                 3.013686170436881E+05,      /* I = 49 */
(PID.TID 0000.0001)                 3.008068453676764E+05,      /* I = 50 */
(PID.TID 0000.0001)                 2.991205495886625E+05,      /* I = 51 */
(PID.TID 0000.0001)                 2.963063101754721E+05,      /* I = 52 */
(PID.TID 0000.0001)                 2.923567890694162E+05,      /* I = 53 */
(PID.TID 0000.0001)                 2.872580915202295E+05,      /* I = 54 */
(PID.TID 0000.0001)                 2.809856491525217E+05,      /* I = 55 */
(PID.TID 0000.0001)                 2.734980225206389E+05,      /* I = 56 */
(PID.TID 0000.0001)                 2.647274964828301E+05,      /* I = 57 */
(PID.TID 0000.0001)                 2.545652950875683E+05,      /* I = 58 */
(PID.TID 0000.0001)                 2.428369969078989E+05,      /* I = 59 */
(PID.TID 0000.0001)                 2.292584591272880E+05,      /* I = 60 */
(PID.TID 0000.0001)                 2.133486626971531E+05,      /* I = 61 */
(PID.TID 0000.0001)                 1.942331448101592E+05,      /* I = 62 */
(PID.TID 0000.0001)                 1.701080315742101E+05,      /* I = 63 */
(PID.TID 0000.0001)                 1.362652340208229E+05,      /* I = 64 */
(PID.TID 0000.0001)                 8.015229982413632E+04,      /* I = 65 */
(PID.TID 0000.0001)                 1.362652340208229E+05,      /* I = 66 */
(PID.TID 0000.0001)                 1.701080315742101E+05,      /* I = 67 */
(PID.TID 0000.0001)                 1.942331448101592E+05,      /* I = 68 */
(PID.TID 0000.0001)                 2.133486626971531E+05,      /* I = 69 */
(PID.TID 0000.0001)                 2.292584591272880E+05,      /* I = 70 */
(PID.TID 0000.0001)                 2.428369969078989E+05,      /* I = 71 */
(PID.TID 0000.0001)                 2.545652950875683E+05,      /* I = 72 */
(PID.TID 0000.0001)                 2.647274964828301E+05,      /* I = 73 */
(PID.TID 0000.0001)                 2.734980225206389E+05,      /* I = 74 */
(PID.TID 0000.0001)                 2.809856491525217E+05,      /* I = 75 */
(PID.TID 0000.0001)                 2.872580915202295E+05,      /* I = 76 */
(PID.TID 0000.0001)                 2.923567890694162E+05,      /* I = 77 */
(PID.TID 0000.0001)                 2.963063101754721E+05,      /* I = 78 */
(PID.TID 0000.0001)                 2.991205495886625E+05,      /* I = 79 */
(PID.TID 0000.0001)                 3.008068453676764E+05,      /* I = 80 */
(PID.TID 0000.0001)                 3.013686170436881E+05,      /* I = 81 */
(PID.TID 0000.0001)                 3.008068453676764E+05,      /* I = 82 */
(PID.TID 0000.0001)                 2.991205495886625E+05,      /* I = 83 */
(PID.TID 0000.0001)                 2.963063101754721E+05,      /* I = 84 */
(PID.TID 0000.0001)                 2.923567890694162E+05,      /* I = 85 */
(PID.TID 0000.0001)                 2.872580915202295E+05,      /* I = 86 */
(PID.TID 0000.0001)                 2.809856491525217E+05,      /* I = 87 */
(PID.TID 0000.0001)                 2.734980225206389E+05,      /* I = 88 */
(PID.TID 0000.0001)                 2.647274964828301E+05,      /* I = 89 */
(PID.TID 0000.0001)                 2.545652950875683E+05,      /* I = 90 */
(PID.TID 0000.0001)                 2.428369969078989E+05,      /* I = 91 */
(PID.TID 0000.0001)                 2.292584591272880E+05,      /* I = 92 */
(PID.TID 0000.0001)                 2.133486626971531E+05,      /* I = 93 */
(PID.TID 0000.0001)                 1.942331448101592E+05,      /* I = 94 */
(PID.TID 0000.0001)                 1.701080315742101E+05,      /* I = 95 */
(PID.TID 0000.0001)                 1.362652340208229E+05,      /* I = 96 */
(PID.TID 0000.0001)                 8.015229982413632E+04,      /* I = 97 */
(PID.TID 0000.0001)                 1.362652340208229E+05,      /* I = 98 */
(PID.TID 0000.0001)                 1.701080315742101E+05,      /* I = 99 */
(PID.TID 0000.0001)                 1.942331448101592E+05,      /* I =100 */
(PID.TID 0000.0001)                 2.133486626971531E+05,      /* I =101 */
(PID.TID 0000.0001)                 2.292584591272880E+05,      /* I =102 */
(PID.TID 0000.0001)                 2.428369969078989E+05,      /* I =103 */
(PID.TID 0000.0001)                 2.545652950875683E+05,      /* I =104 */
(PID.TID 0000.0001)                 2.647274964828301E+05,      /* I =105 */
(PID.TID 0000.0001)                 2.734980225206389E+05,      /* I =106 */
(PID.TID 0000.0001)                 2.809856491525217E+05,      /* I =107 */
(PID.TID 0000.0001)                 2.872580915202295E+05,      /* I =108 */
(PID.TID 0000.0001)                 2.923567890694162E+05,      /* I =109 */
(PID.TID 0000.0001)                 2.963063101754721E+05,      /* I =110 */
(PID.TID 0000.0001)                 2.991205495886625E+05,      /* I =111 */
(PID.TID 0000.0001)                 3.008068453676764E+05,      /* I =112 */
(PID.TID 0000.0001)                 3.013686170436881E+05,      /* I =113 */
(PID.TID 0000.0001)                 3.008068453676764E+05,      /* I =114 */
(PID.TID 0000.0001)                 2.991205495886625E+05,      /* I =115 */
(PID.TID 0000.0001)                 2.963063101754721E+05,      /* I =116 */
(PID.TID 0000.0001)                 2.923567890694162E+05,      /* I =117 */
(PID.TID 0000.0001)                 2.872580915202295E+05,      /* I =118 */
(PID.TID 0000.0001)                 2.809856491525217E+05,      /* I =119 */
(PID.TID 0000.0001)                 2.734980225206389E+05,      /* I =120 */
(PID.TID 0000.0001)                 2.647274964828301E+05,      /* I =121 */
(PID.TID 0000.0001)                 2.545652950875683E+05,      /* I =122 */
(PID.TID 0000.0001)                 2.428369969078989E+05,      /* I =123 */
(PID.TID 0000.0001)                 2.292584591272880E+05,      /* I =124 */
(PID.TID 0000.0001)                 2.133486626971531E+05,      /* I =125 */
(PID.TID 0000.0001)                 1.942331448101592E+05,      /* I =126 */
(PID.TID 0000.0001)                 1.701080315742101E+05,      /* I =127 */
(PID.TID 0000.0001)                 1.362652340208229E+05,      /* I =128 */
(PID.TID 0000.0001)                 8.015229982413632E+04,      /* I =129 */
(PID.TID 0000.0001)                 1.362652340208229E+05,      /* I =130 */
(PID.TID 0000.0001)                 1.701080315742101E+05,      /* I =131 */
(PID.TID 0000.0001)                 1.942331448101592E+05,      /* I =132 */
(PID.TID 0000.0001)                 2.133486626971531E+05,      /* I =133 */
(PID.TID 0000.0001)                 2.292584591272880E+05,      /* I =134 */
(PID.TID 0000.0001)                 2.428369969078989E+05,      /* I =135 */
(PID.TID 0000.0001)                 2.545652950875683E+05,      /* I =136 */
(PID.TID 0000.0001)                 2.647274964828301E+05,      /* I =137 */
(PID.TID 0000.0001)                 2.734980225206389E+05,      /* I =138 */
(PID.TID 0000.0001)                 2.809856491525217E+05,      /* I =139 */
(PID.TID 0000.0001)                 2.872580915202295E+05,      /* I =140 */
(PID.TID 0000.0001)                 2.923567890694162E+05,      /* I =141 */
(PID.TID 0000.0001)                 2.963063101754721E+05,      /* I =142 */
(PID.TID 0000.0001)                 2.991205495886625E+05,      /* I =143 */
(PID.TID 0000.0001)                 3.008068453676764E+05,      /* I =144 */
(PID.TID 0000.0001)                 3.013686170436881E+05,      /* I =145 */
(PID.TID 0000.0001)                 3.008068453676764E+05,      /* I =146 */
(PID.TID 0000.0001)                 2.991205495886625E+05,      /* I =147 */
(PID.TID 0000.0001)                 2.963063101754721E+05,      /* I =148 */
(PID.TID 0000.0001)                 2.923567890694162E+05,      /* I =149 */
(PID.TID 0000.0001)                 2.872580915202295E+05,      /* I =150 */
(PID.TID 0000.0001)                 2.809856491525217E+05,      /* I =151 */
(PID.TID 0000.0001)                 2.734980225206389E+05,      /* I =152 */
(PID.TID 0000.0001)                 2.647274964828301E+05,      /* I =153 */
(PID.TID 0000.0001)                 2.545652950875683E+05,      /* I =154 */
(PID.TID 0000.0001)                 2.428369969078989E+05,      /* I =155 */
(PID.TID 0000.0001)                 2.292584591272880E+05,      /* I =156 */
(PID.TID 0000.0001)                 2.133486626971531E+05,      /* I =157 */
(PID.TID 0000.0001)                 1.942331448101592E+05,      /* I =158 */
(PID.TID 0000.0001)                 1.701080315742101E+05,      /* I =159 */
(PID.TID 0000.0001)                 1.362652340208229E+05,      /* I =160 */
(PID.TID 0000.0001)                 8.015229982413632E+04,      /* I =161 */
(PID.TID 0000.0001)                 1.362652340208229E+05,      /* I =162 */
(PID.TID 0000.0001)                 1.701080315742101E+05,      /* I =163 */
(PID.TID 0000.0001)                 1.942331448101592E+05,      /* I =164 */
(PID.TID 0000.0001)                 2.133486626971531E+05,      /* I =165 */
(PID.TID 0000.0001)                 2.292584591272880E+05,      /* I =166 */
(PID.TID 0000.0001)                 2.428369969078989E+05,      /* I =167 */
(PID.TID 0000.0001)                 2.545652950875683E+05,      /* I =168 */
(PID.TID 0000.0001)                 2.647274964828301E+05,      /* I =169 */
(PID.TID 0000.0001)                 2.734980225206389E+05,      /* I =170 */
(PID.TID 0000.0001)                 2.809856491525217E+05,      /* I =171 */
(PID.TID 0000.0001)                 2.872580915202295E+05,      /* I =172 */
(PID.TID 0000.0001)                 2.923567890694162E+05,      /* I =173 */
(PID.TID 0000.0001)                 2.963063101754721E+05,      /* I =174 */
(PID.TID 0000.0001)                 2.991205495886625E+05,      /* I =175 */
(PID.TID 0000.0001)                 3.008068453676764E+05,      /* I =176 */
(PID.TID 0000.0001)                 3.013686170436881E+05,      /* I =177 */
(PID.TID 0000.0001)                 3.008068453676764E+05,      /* I =178 */
(PID.TID 0000.0001)                 2.991205495886625E+05,      /* I =179 */
(PID.TID 0000.0001)                 2.963063101754721E+05,      /* I =180 */
(PID.TID 0000.0001)                 2.923567890694162E+05,      /* I =181 */
(PID.TID 0000.0001)                 2.872580915202295E+05,      /* I =182 */
(PID.TID 0000.0001)                 2.809856491525217E+05,      /* I =183 */
(PID.TID 0000.0001)                 2.734980225206389E+05,      /* I =184 */
(PID.TID 0000.0001)                 2.647274964828301E+05,      /* I =185 */
(PID.TID 0000.0001)                 2.545652950875683E+05,      /* I =186 */
(PID.TID 0000.0001)                 2.428369969078989E+05,      /* I =187 */
(PID.TID 0000.0001)                 2.292584591272880E+05,      /* I =188 */
(PID.TID 0000.0001)                 2.133486626971531E+05,      /* I =189 */
(PID.TID 0000.0001)                 1.942331448101592E+05,      /* I =190 */
(PID.TID 0000.0001)                 1.701080315742101E+05,      /* I =191 */
(PID.TID 0000.0001)                 1.362652340208229E+05       /* I =192 */
(PID.TID 0000.0001)     ;
(PID.TID 0000.0001) dyU =  /* dyU(1,:,1,:) ( m - cartesian, degrees - spherical ) */
(PID.TID 0000.0001)                 8.015229982413632E+04,      /* J =  1 */
(PID.TID 0000.0001)                 1.333130744933864E+05,      /* J =  2 */
(PID.TID 0000.0001)                 1.691744868129062E+05,      /* J =  3 */
(PID.TID 0000.0001)                 1.937548202849060E+05,      /* J =  4 */
(PID.TID 0000.0001)                 2.130490056267208E+05,      /* J =  5 */
(PID.TID 0000.0001)                 2.290479919481738E+05,      /* J =  6 */
(PID.TID 0000.0001)                 2.426774358027003E+05,      /* J =  7 */
(PID.TID 0000.0001)                 2.544372984215561E+05,      /* J =  8 */
(PID.TID 0000.0001)                 2.646201463834826E+05,      /* J =  9 */
(PID.TID 0000.0001)                 2.734046499619031E+05,      /* J = 10 */
(PID.TID 0000.0001)                 2.809019351693761E+05,      /* J = 11 */
(PID.TID 0000.0001)                 2.871811105274442E+05,      /* J = 12 */
(PID.TID 0000.0001)                 2.922844849381675E+05,      /* J = 13 */
(PID.TID 0000.0001)                 2.962371870847826E+05,      /* J = 14 */
(PID.TID 0000.0001)                 2.990534755671296E+05,      /* J = 15 */
(PID.TID 0000.0001)                 3.007409169495504E+05,      /* J = 16 */
(PID.TID 0000.0001)                 3.013031486919771E+05,      /* J = 17 */
(PID.TID 0000.0001)                 3.007409169495504E+05,      /* J = 18 */
(PID.TID 0000.0001)                 2.990534755671296E+05,      /* J = 19 */
(PID.TID 0000.0001)                 2.962371870847826E+05,      /* J = 20 */
(PID.TID 0000.0001)                 2.922844849381675E+05,      /* J = 21 */
(PID.TID 0000.0001)                 2.871811105274442E+05,      /* J = 22 */
(PID.TID 0000.0001)                 2.809019351693761E+05,      /* J = 23 */
(PID.TID 0000.0001)                 2.734046499619031E+05,      /* J = 24 */
(PID.TID 0000.0001)                 2.646201463834826E+05,      /* J = 25 */
(PID.TID 0000.0001)                 2.544372984215561E+05,      /* J = 26 */
(PID.TID 0000.0001)                 2.426774358027003E+05,      /* J = 27 */
(PID.TID 0000.0001)                 2.290479919481738E+05,      /* J = 28 */
(PID.TID 0000.0001)                 2.130490056267208E+05,      /* J = 29 */
(PID.TID 0000.0001)                 1.937548202849060E+05,      /* J = 30 */
(PID.TID 0000.0001)                 1.691744868129062E+05,      /* J = 31 */
(PID.TID 0000.0001)                 1.333130744933864E+05       /* J = 32 */
(PID.TID 0000.0001)     ;
(PID.TID 0000.0001) rA =  /* rA(:,1,:,1) ( m - cartesian, degrees - spherical ) */
(PID.TID 0000.0001)                 1.401900702255611E+10,      /* I =  1 */
(PID.TID 0000.0001)                 2.459906945574446E+10,      /* I =  2 */
(PID.TID 0000.0001)                 3.378518544307869E+10,      /* I =  3 */
(PID.TID 0000.0001)                 4.192037169898667E+10,      /* I =  4 */
(PID.TID 0000.0001)                 4.925938996118163E+10,      /* I =  5 */
(PID.TID 0000.0001)                 5.594154126607553E+10,      /* I =  6 */
(PID.TID 0000.0001)                 6.203683527772523E+10,      /* I =  7 */
(PID.TID 0000.0001)                 6.757541173817516E+10,      /* I =  8 */
(PID.TID 0000.0001)                 7.256353271748119E+10,      /* I =  9 */
(PID.TID 0000.0001)                 7.699293007098555E+10,      /* I = 10 */
(PID.TID 0000.0001)                 8.084683449728902E+10,      /* I = 11 */
(PID.TID 0000.0001)                 8.410423102796223E+10,      /* I = 12 */
(PID.TID 0000.0001)                 8.674306976737517E+10,      /* I = 13 */
(PID.TID 0000.0001)                 8.874277443041928E+10,      /* I = 14 */
(PID.TID 0000.0001)                 9.008620045350865E+10,      /* I = 15 */
(PID.TID 0000.0001)                 9.076111290418457E+10,      /* I = 16 */
(PID.TID 0000.0001)                 9.076111290422060E+10,      /* I = 17 */
(PID.TID 0000.0001)                 9.008620045354469E+10,      /* I = 18 */
(PID.TID 0000.0001)                 8.874277443041928E+10,      /* I = 19 */
(PID.TID 0000.0001)                 8.674306976741121E+10,      /* I = 20 */
(PID.TID 0000.0001)                 8.410423102799828E+10,      /* I = 21 */
(PID.TID 0000.0001)                 8.084683449728902E+10,      /* I = 22 */
(PID.TID 0000.0001)                 7.699293007098555E+10,      /* I = 23 */
(PID.TID 0000.0001)                 7.256353271748119E+10,      /* I = 24 */
(PID.TID 0000.0001)                 6.757541173817516E+10,      /* I = 25 */
(PID.TID 0000.0001)                 6.203683527772523E+10,      /* I = 26 */
(PID.TID 0000.0001)                 5.594154126611156E+10,      /* I = 27 */
(PID.TID 0000.0001)                 4.925938996118163E+10,      /* I = 28 */
(PID.TID 0000.0001)                 4.192037169898667E+10,      /* I = 29 */
(PID.TID 0000.0001)                 3.378518544304265E+10,      /* I = 30 */
(PID.TID 0000.0001)                 2.459906945574446E+10,      /* I = 31 */
(PID.TID 0000.0001)                 1.401900702259215E+10,      /* I = 32 */
(PID.TID 0000.0001)                 1.401900702255611E+10,      /* I = 33 */
(PID.TID 0000.0001)                 2.459906945574446E+10,      /* I = 34 */
(PID.TID 0000.0001)                 3.378518544307869E+10,      /* I = 35 */
(PID.TID 0000.0001)                 4.192037169898667E+10,      /* I = 36 */
(PID.TID 0000.0001)                 4.925938996118163E+10,      /* I = 37 */
(PID.TID 0000.0001)                 5.594154126607553E+10,      /* I = 38 */
(PID.TID 0000.0001)                 6.203683527772523E+10,      /* I = 39 */
(PID.TID 0000.0001)                 6.757541173817516E+10,      /* I = 40 */
(PID.TID 0000.0001)                 7.256353271748119E+10,      /* I = 41 */
(PID.TID 0000.0001)                 7.699293007098555E+10,      /* I = 42 */
(PID.TID 0000.0001)                 8.084683449728902E+10,      /* I = 43 */
(PID.TID 0000.0001)                 8.410423102796223E+10,      /* I = 44 */
(PID.TID 0000.0001)                 8.674306976737517E+10,      /* I = 45 */
(PID.TID 0000.0001)                 8.874277443041928E+10,      /* I = 46 */
(PID.TID 0000.0001)                 9.008620045350865E+10,      /* I = 47 */
(PID.TID 0000.0001)                 9.076111290418457E+10,      /* I = 48 */
(PID.TID 0000.0001)                 9.076111290422060E+10,      /* I = 49 */
(PID.TID 0000.0001)                 9.008620045354469E+10,      /* I = 50 */
(PID.TID 0000.0001)                 8.874277443041928E+10,      /* I = 51 */
(PID.TID 0000.0001)                 8.674306976741121E+10,      /* I = 52 */
(PID.TID 0000.0001)                 8.410423102799828E+10,      /* I = 53 */
(PID.TID 0000.0001)                 8.084683449728902E+10,      /* I = 54 */
(PID.TID 0000.0001)                 7.699293007098555E+10,      /* I = 55 */
(PID.TID 0000.0001)                 7.256353271748119E+10,      /* I = 56 */
(PID.TID 0000.0001)                 6.757541173817516E+10,      /* I = 57 */
(PID.TID 0000.0001)                 6.203683527772523E+10,      /* I = 58 */
(PID.TID 0000.0001)                 5.594154126611156E+10,      /* I = 59 */
(PID.TID 0000.0001)                 4.925938996118163E+10,      /* I = 60 */
(PID.TID 0000.0001)                 4.192037169898667E+10,      /* I = 61 */
(PID.TID 0000.0001)                 3.378518544304265E+10,      /* I = 62 */
(PID.TID 0000.0001)                 2.459906945574446E+10,      /* I = 63 */
(PID.TID 0000.0001)                 1.401900702259215E+10,      /* I = 64 */
(PID.TID 0000.0001)                 1.401900702255611E+10,      /* I = 65 */
(PID.TID 0000.0001)                 2.459906945574446E+10,      /* I = 66 */
(PID.TID 0000.0001)                 3.378518544307869E+10,      /* I = 67 */
(PID.TID 0000.0001)                 4.192037169898667E+10,      /* I = 68 */
(PID.TID 0000.0001)                 4.925938996118163E+10,      /* I = 69 */
(PID.TID 0000.0001)                 5.594154126607553E+10,      /* I = 70 */
(PID.TID 0000.0001)                 6.203683527772523E+10,      /* I = 71 */
(PID.TID 0000.0001)                 6.757541173817516E+10,      /* I = 72 */
(PID.TID 0000.0001)                 7.256353271748119E+10,      /* I = 73 */
(PID.TID 0000.0001)                 7.699293007098555E+10,      /* I = 74 */
(PID.TID 0000.0001)                 8.084683449728902E+10,      /* I = 75 */
(PID.TID 0000.0001)                 8.410423102796223E+10,      /* I = 76 */
(PID.TID 0000.0001)                 8.674306976737517E+10,      /* I = 77 */
(PID.TID 0000.0001)                 8.874277443041928E+10,      /* I = 78 */
(PID.TID 0000.0001)                 9.008620045350865E+10,      /* I = 79 */
(PID.TID 0000.0001)                 9.076111290418457E+10,      /* I = 80 */
(PID.TID 0000.0001)                 9.076111290422060E+10,      /* I = 81 */
(PID.TID 0000.0001)                 9.008620045354469E+10,      /* I = 82 */
(PID.TID 0000.0001)                 8.874277443041928E+10,      /* I = 83 */
(PID.TID 0000.0001)                 8.674306976741121E+10,      /* I = 84 */
(PID.TID 0000.0001)                 8.410423102799828E+10,      /* I = 85 */
(PID.TID 0000.0001)                 8.084683449728902E+10,      /* I = 86 */
(PID.TID 0000.0001)                 7.699293007098555E+10,      /* I = 87 */
(PID.TID 0000.0001)                 7.256353271748119E+10,      /* I = 88 */
(PID.TID 0000.0001)                 6.757541173817516E+10,      /* I = 89 */
(PID.TID 0000.0001)                 6.203683527772523E+10,      /* I = 90 */
(PID.TID 0000.0001)                 5.594154126611156E+10,      /* I = 91 */
(PID.TID 0000.0001)                 4.925938996118163E+10,      /* I = 92 */
(PID.TID 0000.0001)                 4.192037169898667E+10,      /* I = 93 */
(PID.TID 0000.0001)                 3.378518544304265E+10,      /* I = 94 */
(PID.TID 0000.0001)                 2.459906945574446E+10,      /* I = 95 */
(PID.TID 0000.0001)                 1.401900702259215E+10,      /* I = 96 */
(PID.TID 0000.0001)                 1.401900702255611E+10,      /* I = 97 */
(PID.TID 0000.0001)                 2.459906945574446E+10,      /* I = 98 */
(PID.TID 0000.0001)                 3.378518544307869E+10,      /* I = 99 */
(PID.TID 0000.0001)                 4.192037169898667E+10,      /* I =100 */
(PID.TID 0000.0001)                 4.925938996118163E+10,      /* I =101 */
(PID.TID 0000.0001)                 5.594154126607553E+10,      /* I =102 */
(PID.TID 0000.0001)                 6.203683527772523E+10,      /* I =103 */
(PID.TID 0000.0001)                 6.757541173817516E+10,      /* I =104 */
(PID.TID 0000.0001)                 7.256353271748119E+10,      /* I =105 */
(PID.TID 0000.0001)                 7.699293007098555E+10,      /* I =106 */
(PID.TID 0000.0001)                 8.084683449728902E+10,      /* I =107 */
(PID.TID 0000.0001)                 8.410423102796223E+10,      /* I =108 */
(PID.TID 0000.0001)                 8.674306976737517E+10,      /* I =109 */
(PID.TID 0000.0001)                 8.874277443041928E+10,      /* I =110 */
(PID.TID 0000.0001)                 9.008620045350865E+10,      /* I =111 */
(PID.TID 0000.0001)                 9.076111290418457E+10,      /* I =112 */
(PID.TID 0000.0001)                 9.076111290422060E+10,      /* I =113 */
(PID.TID 0000.0001)                 9.008620045354469E+10,      /* I =114 */
(PID.TID 0000.0001)                 8.874277443041928E+10,      /* I =115 */
(PID.TID 0000.0001)                 8.674306976741121E+10,      /* I =116 */
(PID.TID 0000.0001)                 8.410423102799828E+10,      /* I =117 */
(PID.TID 0000.0001)                 8.084683449728902E+10,      /* I =118 */
(PID.TID 0000.0001)                 7.699293007098555E+10,      /* I =119 */
(PID.TID 0000.0001)                 7.256353271748119E+10,      /* I =120 */
(PID.TID 0000.0001)                 6.757541173817516E+10,      /* I =121 */
(PID.TID 0000.0001)                 6.203683527772523E+10,      /* I =122 */
(PID.TID 0000.0001)                 5.594154126611156E+10,      /* I =123 */
(PID.TID 0000.0001)                 4.925938996118163E+10,      /* I =124 */
(PID.TID 0000.0001)                 4.192037169898667E+10,      /* I =125 */
(PID.TID 0000.0001)                 3.378518544304265E+10,      /* I =126 */
(PID.TID 0000.0001)                 2.459906945574446E+10,      /* I =127 */
(PID.TID 0000.0001)                 1.401900702259215E+10,      /* I =128 */
(PID.TID 0000.0001)                 1.401900702255611E+10,      /* I =129 */
(PID.TID 0000.0001)                 2.459906945574446E+10,      /* I =130 */
(PID.TID 0000.0001)                 3.378518544307869E+10,      /* I =131 */
(PID.TID 0000.0001)                 4.192037169898667E+10,      /* I =132 */
(PID.TID 0000.0001)                 4.925938996118163E+10,      /* I =133 */
(PID.TID 0000.0001)                 5.594154126607553E+10,      /* I =134 */
(PID.TID 0000.0001)                 6.203683527772523E+10,      /* I =135 */
(PID.TID 0000.0001)                 6.757541173817516E+10,      /* I =136 */
(PID.TID 0000.0001)                 7.256353271748119E+10,      /* I =137 */
(PID.TID 0000.0001)                 7.699293007098555E+10,      /* I =138 */
(PID.TID 0000.0001)                 8.084683449728902E+10,      /* I =139 */
(PID.TID 0000.0001)                 8.410423102796223E+10,      /* I =140 */
(PID.TID 0000.0001)                 8.674306976737517E+10,      /* I =141 */
(PID.TID 0000.0001)                 8.874277443041928E+10,      /* I =142 */
(PID.TID 0000.0001)                 9.008620045350865E+10,      /* I =143 */
(PID.TID 0000.0001)                 9.076111290418457E+10,      /* I =144 */
(PID.TID 0000.0001)                 9.076111290422060E+10,      /* I =145 */
(PID.TID 0000.0001)                 9.008620045354469E+10,      /* I =146 */
(PID.TID 0000.0001)                 8.874277443041928E+10,      /* I =147 */
(PID.TID 0000.0001)                 8.674306976741121E+10,      /* I =148 */
(PID.TID 0000.0001)                 8.410423102799828E+10,      /* I =149 */
(PID.TID 0000.0001)                 8.084683449728902E+10,      /* I =150 */
(PID.TID 0000.0001)                 7.699293007098555E+10,      /* I =151 */
(PID.TID 0000.0001)                 7.256353271748119E+10,      /* I =152 */
(PID.TID 0000.0001)                 6.757541173817516E+10,      /* I =153 */
(PID.TID 0000.0001)                 6.203683527772523E+10,      /* I =154 */
(PID.TID 0000.0001)                 5.594154126611156E+10,      /* I =155 */
(PID.TID 0000.0001)                 4.925938996118163E+10,      /* I =156 */
(PID.TID 0000.0001)                 4.192037169898667E+10,      /* I =157 */
(PID.TID 0000.0001)                 3.378518544304265E+10,      /* I =158 */
(PID.TID 0000.0001)                 2.459906945574446E+10,      /* I =159 */
(PID.TID 0000.0001)                 1.401900702259215E+10,      /* I =160 */
(PID.TID 0000.0001)                 1.401900702255611E+10,      /* I =161 */
(PID.TID 0000.0001)                 2.459906945574446E+10,      /* I =162 */
(PID.TID 0000.0001)                 3.378518544307869E+10,      /* I =163 */
(PID.TID 0000.0001)                 4.192037169898667E+10,      /* I =164 */
(PID.TID 0000.0001)                 4.925938996118163E+10,      /* I =165 */
(PID.TID 0000.0001)                 5.594154126607553E+10,      /* I =166 */
(PID.TID 0000.0001)                 6.203683527772523E+10,      /* I =167 */
(PID.TID 0000.0001)                 6.757541173817516E+10,      /* I =168 */
(PID.TID 0000.0001)                 7.256353271748119E+10,      /* I =169 */
(PID.TID 0000.0001)                 7.699293007098555E+10,      /* I =170 */
(PID.TID 0000.0001)                 8.084683449728902E+10,      /* I =171 */
(PID.TID 0000.0001)                 8.410423102796223E+10,      /* I =172 */
(PID.TID 0000.0001)                 8.674306976737517E+10,      /* I =173 */
(PID.TID 0000.0001)                 8.874277443041928E+10,      /* I =174 */
(PID.TID 0000.0001)                 9.008620045350865E+10,      /* I =175 */
(PID.TID 0000.0001)                 9.076111290418457E+10,      /* I =176 */
(PID.TID 0000.0001)                 9.076111290422060E+10,      /* I =177 */
(PID.TID 0000.0001)                 9.008620045354469E+10,      /* I =178 */
(PID.TID 0000.0001)                 8.874277443041928E+10,      /* I =179 */
(PID.TID 0000.0001)                 8.674306976741121E+10,      /* I =180 */
(PID.TID 0000.0001)                 8.410423102799828E+10,      /* I =181 */
(PID.TID 0000.0001)                 8.084683449728902E+10,      /* I =182 */
(PID.TID 0000.0001)                 7.699293007098555E+10,      /* I =183 */
(PID.TID 0000.0001)                 7.256353271748119E+10,      /* I =184 */
(PID.TID 0000.0001)                 6.757541173817516E+10,      /* I =185 */
(PID.TID 0000.0001)                 6.203683527772523E+10,      /* I =186 */
(PID.TID 0000.0001)                 5.594154126611156E+10,      /* I =187 */
(PID.TID 0000.0001)                 4.925938996118163E+10,      /* I =188 */
(PID.TID 0000.0001)                 4.192037169898667E+10,      /* I =189 */
(PID.TID 0000.0001)                 3.378518544304265E+10,      /* I =190 */
(PID.TID 0000.0001)                 2.459906945574446E+10,      /* I =191 */
(PID.TID 0000.0001)                 1.401900702259215E+10       /* I =192 */
(PID.TID 0000.0001)     ;
(PID.TID 0000.0001) rA =  /* rA(1,:,1,:) ( m - cartesian, degrees - spherical ) */
(PID.TID 0000.0001)                 1.401900702255611E+10,      /* J =  1 */
(PID.TID 0000.0001)                 2.459906945574446E+10,      /* J =  2 */
(PID.TID 0000.0001)                 3.378518544307869E+10,      /* J =  3 */
(PID.TID 0000.0001)                 4.192037169898667E+10,      /* J =  4 */
(PID.TID 0000.0001)                 4.925938996118163E+10,      /* J =  5 */
(PID.TID 0000.0001)                 5.594154126607553E+10,      /* J =  6 */
(PID.TID 0000.0001)                 6.203683527776127E+10,      /* J =  7 */
(PID.TID 0000.0001)                 6.757541173817516E+10,      /* J =  8 */
(PID.TID 0000.0001)                 7.256353271748119E+10,      /* J =  9 */
(PID.TID 0000.0001)                 7.699293007098555E+10,      /* J = 10 */
(PID.TID 0000.0001)                 8.084683449728902E+10,      /* J = 11 */
(PID.TID 0000.0001)                 8.410423102799828E+10,      /* J = 12 */
(PID.TID 0000.0001)                 8.674306976737517E+10,      /* J = 13 */
(PID.TID 0000.0001)                 8.874277443041928E+10,      /* J = 14 */
(PID.TID 0000.0001)                 9.008620045350865E+10,      /* J = 15 */
(PID.TID 0000.0001)                 9.076111290418457E+10,      /* J = 16 */
(PID.TID 0000.0001)                 9.076111290422060E+10,      /* J = 17 */
(PID.TID 0000.0001)                 9.008620045354469E+10,      /* J = 18 */
(PID.TID 0000.0001)                 8.874277443041928E+10,      /* J = 19 */
(PID.TID 0000.0001)                 8.674306976737517E+10,      /* J = 20 */
(PID.TID 0000.0001)                 8.410423102799828E+10,      /* J = 21 */
(PID.TID 0000.0001)                 8.084683449728902E+10,      /* J = 22 */
(PID.TID 0000.0001)                 7.699293007098555E+10,      /* J = 23 */
(PID.TID 0000.0001)                 7.256353271748119E+10,      /* J = 24 */
(PID.TID 0000.0001)                 6.757541173817516E+10,      /* J = 25 */
(PID.TID 0000.0001)                 6.203683527772523E+10,      /* J = 26 */
(PID.TID 0000.0001)                 5.594154126607553E+10,      /* J = 27 */
(PID.TID 0000.0001)                 4.925938996118163E+10,      /* J = 28 */
(PID.TID 0000.0001)                 4.192037169898667E+10,      /* J = 29 */
(PID.TID 0000.0001)                 3.378518544307869E+10,      /* J = 30 */
(PID.TID 0000.0001)                 2.459906945574446E+10,      /* J = 31 */
(PID.TID 0000.0001)                 1.401900702259215E+10       /* J = 32 */
(PID.TID 0000.0001)     ;
(PID.TID 0000.0001) rAw =  /* rAw(:,1,:,1) ( m - cartesian, degrees - spherical ) */
(PID.TID 0000.0001)                 1.216690346714270E+10,      /* I =  1 */
(PID.TID 0000.0001)                 1.974052138506315E+10,      /* I =  2 */
(PID.TID 0000.0001)                 2.943712825252015E+10,      /* I =  3 */
(PID.TID 0000.0001)                 3.801790263324359E+10,      /* I =  4 */
(PID.TID 0000.0001)                 4.571243814189866E+10,      /* I =  5 */
(PID.TID 0000.0001)                 5.269930713599979E+10,      /* I =  6 */
(PID.TID 0000.0001)                 5.907428494299063E+10,      /* I =  7 */
(PID.TID 0000.0001)                 6.488320895111514E+10,      /* I =  8 */
(PID.TID 0000.0001)                 7.014205907741882E+10,      /* I =  9 */
(PID.TID 0000.0001)                 7.484854821847499E+10,      /* I = 10 */
(PID.TID 0000.0001)                 7.898934631431560E+10,      /* I = 11 */
(PID.TID 0000.0001)                 8.254500894894537E+10,      /* I = 12 */
(PID.TID 0000.0001)                 8.549360686473492E+10,      /* I = 13 */
(PID.TID 0000.0001)                 8.781353403175085E+10,      /* I = 14 */
(PID.TID 0000.0001)                 8.948571540392021E+10,      /* I = 15 */
(PID.TID 0000.0001)                 9.049530583086168E+10,      /* I = 16 */
(PID.TID 0000.0001)                 9.083293515008307E+10,      /* I = 17 */
(PID.TID 0000.0001)                 9.049530583087070E+10,      /* I = 18 */
(PID.TID 0000.0001)                 8.948571540391121E+10,      /* I = 19 */
(PID.TID 0000.0001)                 8.781353403174185E+10,      /* I = 20 */
(PID.TID 0000.0001)                 8.549360686467184E+10,      /* I = 21 */
(PID.TID 0000.0001)                 8.254500894890933E+10,      /* I = 22 */
(PID.TID 0000.0001)                 7.898934631434262E+10,      /* I = 23 */
(PID.TID 0000.0001)                 7.484854821844795E+10,      /* I = 24 */
(PID.TID 0000.0001)                 7.014205907742783E+10,      /* I = 25 */
(PID.TID 0000.0001)                 6.488320895111514E+10,      /* I = 26 */
(PID.TID 0000.0001)                 5.907428494299063E+10,      /* I = 27 */
(PID.TID 0000.0001)                 5.269930713599078E+10,      /* I = 28 */
(PID.TID 0000.0001)                 4.571243814190767E+10,      /* I = 29 */
(PID.TID 0000.0001)                 3.801790263325260E+10,      /* I = 30 */
(PID.TID 0000.0001)                 2.943712825251114E+10,      /* I = 31 */
(PID.TID 0000.0001)                 1.974052138509018E+10,      /* I = 32 */
(PID.TID 0000.0001)                 1.216690346714270E+10,      /* I = 33 */
(PID.TID 0000.0001)                 1.974052138506315E+10,      /* I = 34 */
(PID.TID 0000.0001)                 2.943712825252015E+10,      /* I = 35 */
(PID.TID 0000.0001)                 3.801790263324359E+10,      /* I = 36 */
(PID.TID 0000.0001)                 4.571243814189866E+10,      /* I = 37 */
(PID.TID 0000.0001)                 5.269930713599979E+10,      /* I = 38 */
(PID.TID 0000.0001)                 5.907428494299063E+10,      /* I = 39 */
(PID.TID 0000.0001)                 6.488320895111514E+10,      /* I = 40 */
(PID.TID 0000.0001)                 7.014205907741882E+10,      /* I = 41 */
(PID.TID 0000.0001)                 7.484854821847499E+10,      /* I = 42 */
(PID.TID 0000.0001)                 7.898934631431560E+10,      /* I = 43 */
(PID.TID 0000.0001)                 8.254500894894537E+10,      /* I = 44 */
(PID.TID 0000.0001)                 8.549360686473492E+10,      /* I = 45 */
(PID.TID 0000.0001)                 8.781353403175085E+10,      /* I = 46 */
(PID.TID 0000.0001)                 8.948571540392021E+10,      /* I = 47 */
(PID.TID 0000.0001)                 9.049530583086168E+10,      /* I = 48 */
(PID.TID 0000.0001)                 9.083293515008307E+10,      /* I = 49 */
(PID.TID 0000.0001)                 9.049530583087070E+10,      /* I = 50 */
(PID.TID 0000.0001)                 8.948571540391121E+10,      /* I = 51 */
(PID.TID 0000.0001)                 8.781353403174185E+10,      /* I = 52 */
(PID.TID 0000.0001)                 8.549360686467184E+10,      /* I = 53 */
(PID.TID 0000.0001)                 8.254500894890933E+10,      /* I = 54 */
(PID.TID 0000.0001)                 7.898934631434262E+10,      /* I = 55 */
(PID.TID 0000.0001)                 7.484854821844795E+10,      /* I = 56 */
(PID.TID 0000.0001)                 7.014205907742783E+10,      /* I = 57 */
(PID.TID 0000.0001)                 6.488320895111514E+10,      /* I = 58 */
(PID.TID 0000.0001)                 5.907428494299063E+10,      /* I = 59 */
(PID.TID 0000.0001)                 5.269930713599078E+10,      /* I = 60 */
(PID.TID 0000.0001)                 4.571243814190767E+10,      /* I = 61 */
(PID.TID 0000.0001)                 3.801790263325260E+10,      /* I = 62 */
(PID.TID 0000.0001)                 2.943712825251114E+10,      /* I = 63 */
(PID.TID 0000.0001)                 1.974052138509018E+10,      /* I = 64 */
(PID.TID 0000.0001)                 1.216690346714270E+10,      /* I = 65 */
(PID.TID 0000.0001)                 1.974052138506315E+10,      /* I = 66 */
(PID.TID 0000.0001)                 2.943712825252015E+10,      /* I = 67 */
(PID.TID 0000.0001)                 3.801790263324359E+10,      /* I = 68 */
(PID.TID 0000.0001)                 4.571243814189866E+10,      /* I = 69 */
(PID.TID 0000.0001)                 5.269930713599979E+10,      /* I = 70 */
(PID.TID 0000.0001)                 5.907428494299063E+10,      /* I = 71 */
(PID.TID 0000.0001)                 6.488320895111514E+10,      /* I = 72 */
(PID.TID 0000.0001)                 7.014205907741882E+10,      /* I = 73 */
(PID.TID 0000.0001)                 7.484854821847499E+10,      /* I = 74 */
(PID.TID 0000.0001)                 7.898934631431560E+10,      /* I = 75 */
(PID.TID 0000.0001)                 8.254500894894537E+10,      /* I = 76 */
(PID.TID 0000.0001)                 8.549360686473492E+10,      /* I = 77 */
(PID.TID 0000.0001)                 8.781353403175085E+10,      /* I = 78 */
(PID.TID 0000.0001)                 8.948571540392021E+10,      /* I = 79 */
(PID.TID 0000.0001)                 9.049530583086168E+10,      /* I = 80 */
(PID.TID 0000.0001)                 9.083293515008307E+10,      /* I = 81 */
(PID.TID 0000.0001)                 9.049530583087070E+10,      /* I = 82 */
(PID.TID 0000.0001)                 8.948571540391121E+10,      /* I = 83 */
(PID.TID 0000.0001)                 8.781353403174185E+10,      /* I = 84 */
(PID.TID 0000.0001)                 8.549360686467184E+10,      /* I = 85 */
(PID.TID 0000.0001)                 8.254500894890933E+10,      /* I = 86 */
(PID.TID 0000.0001)                 7.898934631434262E+10,      /* I = 87 */
(PID.TID 0000.0001)                 7.484854821844795E+10,      /* I = 88 */
(PID.TID 0000.0001)                 7.014205907742783E+10,      /* I = 89 */
(PID.TID 0000.0001)                 6.488320895111514E+10,      /* I = 90 */
(PID.TID 0000.0001)                 5.907428494299063E+10,      /* I = 91 */
(PID.TID 0000.0001)                 5.269930713599078E+10,      /* I = 92 */
(PID.TID 0000.0001)                 4.571243814190767E+10,      /* I = 93 */
(PID.TID 0000.0001)                 3.801790263325260E+10,      /* I = 94 */
(PID.TID 0000.0001)                 2.943712825251114E+10,      /* I = 95 */
(PID.TID 0000.0001)                 1.974052138509018E+10,      /* I = 96 */
(PID.TID 0000.0001)                 1.216690346714270E+10,      /* I = 97 */
(PID.TID 0000.0001)                 1.974052138506315E+10,      /* I = 98 */
(PID.TID 0000.0001)                 2.943712825252015E+10,      /* I = 99 */
(PID.TID 0000.0001)                 3.801790263324359E+10,      /* I =100 */
(PID.TID 0000.0001)                 4.571243814189866E+10,      /* I =101 */
(PID.TID 0000.0001)                 5.269930713599979E+10,      /* I =102 */
(PID.TID 0000.0001)                 5.907428494299063E+10,      /* I =103 */
(PID.TID 0000.0001)                 6.488320895111514E+10,      /* I =104 */
(PID.TID 0000.0001)                 7.014205907741882E+10,      /* I =105 */
(PID.TID 0000.0001)                 7.484854821847499E+10,      /* I =106 */
(PID.TID 0000.0001)                 7.898934631431560E+10,      /* I =107 */
(PID.TID 0000.0001)                 8.254500894894537E+10,      /* I =108 */
(PID.TID 0000.0001)                 8.549360686473492E+10,      /* I =109 */
(PID.TID 0000.0001)                 8.781353403175085E+10,      /* I =110 */
(PID.TID 0000.0001)                 8.948571540392021E+10,      /* I =111 */
(PID.TID 0000.0001)                 9.049530583086168E+10,      /* I =112 */
(PID.TID 0000.0001)                 9.083293515008307E+10,      /* I =113 */
(PID.TID 0000.0001)                 9.049530583087070E+10,      /* I =114 */
(PID.TID 0000.0001)                 8.948571540391121E+10,      /* I =115 */
(PID.TID 0000.0001)                 8.781353403174185E+10,      /* I =116 */
(PID.TID 0000.0001)                 8.549360686467184E+10,      /* I =117 */
(PID.TID 0000.0001)                 8.254500894890933E+10,      /* I =118 */
(PID.TID 0000.0001)                 7.898934631434262E+10,      /* I =119 */
(PID.TID 0000.0001)                 7.484854821844795E+10,      /* I =120 */
(PID.TID 0000.0001)                 7.014205907742783E+10,      /* I =121 */
(PID.TID 0000.0001)                 6.488320895111514E+10,      /* I =122 */
(PID.TID 0000.0001)                 5.907428494299063E+10,      /* I =123 */
(PID.TID 0000.0001)                 5.269930713599078E+10,      /* I =124 */
(PID.TID 0000.0001)                 4.571243814190767E+10,      /* I =125 */
(PID.TID 0000.0001)                 3.801790263325260E+10,      /* I =126 */
(PID.TID 0000.0001)                 2.943712825251114E+10,      /* I =127 */
(PID.TID 0000.0001)                 1.974052138509018E+10,      /* I =128 */
(PID.TID 0000.0001)                 1.216690346714270E+10,      /* I =129 */
(PID.TID 0000.0001)                 1.974052138506315E+10,      /* I =130 */
(PID.TID 0000.0001)                 2.943712825252015E+10,      /* I =131 */
(PID.TID 0000.0001)                 3.801790263324359E+10,      /* I =132 */
(PID.TID 0000.0001)                 4.571243814189866E+10,      /* I =133 */
(PID.TID 0000.0001)                 5.269930713599979E+10,      /* I =134 */
(PID.TID 0000.0001)                 5.907428494299063E+10,      /* I =135 */
(PID.TID 0000.0001)                 6.488320895111514E+10,      /* I =136 */
(PID.TID 0000.0001)                 7.014205907741882E+10,      /* I =137 */
(PID.TID 0000.0001)                 7.484854821847499E+10,      /* I =138 */
(PID.TID 0000.0001)                 7.898934631431560E+10,      /* I =139 */
(PID.TID 0000.0001)                 8.254500894894537E+10,      /* I =140 */
(PID.TID 0000.0001)                 8.549360686473492E+10,      /* I =141 */
(PID.TID 0000.0001)                 8.781353403175085E+10,      /* I =142 */
(PID.TID 0000.0001)                 8.948571540392021E+10,      /* I =143 */
(PID.TID 0000.0001)                 9.049530583086168E+10,      /* I =144 */
(PID.TID 0000.0001)                 9.083293515008307E+10,      /* I =145 */
(PID.TID 0000.0001)                 9.049530583087070E+10,      /* I =146 */
(PID.TID 0000.0001)                 8.948571540391121E+10,      /* I =147 */
(PID.TID 0000.0001)                 8.781353403174185E+10,      /* I =148 */
(PID.TID 0000.0001)                 8.549360686467184E+10,      /* I =149 */
(PID.TID 0000.0001)                 8.254500894890933E+10,      /* I =150 */
(PID.TID 0000.0001)                 7.898934631434262E+10,      /* I =151 */
(PID.TID 0000.0001)                 7.484854821844795E+10,      /* I =152 */
(PID.TID 0000.0001)                 7.014205907742783E+10,      /* I =153 */
(PID.TID 0000.0001)                 6.488320895111514E+10,      /* I =154 */
(PID.TID 0000.0001)                 5.907428494299063E+10,      /* I =155 */
(PID.TID 0000.0001)                 5.269930713599078E+10,      /* I =156 */
(PID.TID 0000.0001)                 4.571243814190767E+10,      /* I =157 */
(PID.TID 0000.0001)                 3.801790263325260E+10,      /* I =158 */
(PID.TID 0000.0001)                 2.943712825251114E+10,      /* I =159 */
(PID.TID 0000.0001)                 1.974052138509018E+10,      /* I =160 */
(PID.TID 0000.0001)                 1.216690346714270E+10,      /* I =161 */
(PID.TID 0000.0001)                 1.974052138506315E+10,      /* I =162 */
(PID.TID 0000.0001)                 2.943712825252015E+10,      /* I =163 */
(PID.TID 0000.0001)                 3.801790263324359E+10,      /* I =164 */
(PID.TID 0000.0001)                 4.571243814189866E+10,      /* I =165 */
(PID.TID 0000.0001)                 5.269930713599979E+10,      /* I =166 */
(PID.TID 0000.0001)                 5.907428494299063E+10,      /* I =167 */
(PID.TID 0000.0001)                 6.488320895111514E+10,      /* I =168 */
(PID.TID 0000.0001)                 7.014205907741882E+10,      /* I =169 */
(PID.TID 0000.0001)                 7.484854821847499E+10,      /* I =170 */
(PID.TID 0000.0001)                 7.898934631431560E+10,      /* I =171 */
(PID.TID 0000.0001)                 8.254500894894537E+10,      /* I =172 */
(PID.TID 0000.0001)                 8.549360686473492E+10,      /* I =173 */
(PID.TID 0000.0001)                 8.781353403175085E+10,      /* I =174 */
(PID.TID 0000.0001)                 8.948571540392021E+10,      /* I =175 */
(PID.TID 0000.0001)                 9.049530583086168E+10,      /* I =176 */
(PID.TID 0000.0001)                 9.083293515008307E+10,      /* I =177 */
(PID.TID 0000.0001)                 9.049530583087070E+10,      /* I =178 */
(PID.TID 0000.0001)                 8.948571540391121E+10,      /* I =179 */
(PID.TID 0000.0001)                 8.781353403174185E+10,      /* I =180 */
(PID.TID 0000.0001)                 8.549360686467184E+10,      /* I =181 */
(PID.TID 0000.0001)                 8.254500894890933E+10,      /* I =182 */
(PID.TID 0000.0001)                 7.898934631434262E+10,      /* I =183 */
(PID.TID 0000.0001)                 7.484854821844795E+10,      /* I =184 */
(PID.TID 0000.0001)                 7.014205907742783E+10,      /* I =185 */
(PID.TID 0000.0001)                 6.488320895111514E+10,      /* I =186 */
(PID.TID 0000.0001)                 5.907428494299063E+10,      /* I =187 */
(PID.TID 0000.0001)                 5.269930713599078E+10,      /* I =188 */
(PID.TID 0000.0001)                 4.571243814190767E+10,      /* I =189 */
(PID.TID 0000.0001)                 3.801790263325260E+10,      /* I =190 */
(PID.TID 0000.0001)                 2.943712825251114E+10,      /* I =191 */
(PID.TID 0000.0001)                 1.974052138509018E+10       /* I =192 */
(PID.TID 0000.0001)     ;
(PID.TID 0000.0001) rAw =  /* rAw(1,:,1,:) ( m - cartesian, degrees - spherical ) */
(PID.TID 0000.0001)                 1.216690346714270E+10,      /* J =  1 */
(PID.TID 0000.0001)                 2.390126200743558E+10,      /* J =  2 */
(PID.TID 0000.0001)                 3.341968103208270E+10,      /* J =  3 */
(PID.TID 0000.0001)                 4.168532893152940E+10,      /* J =  4 */
(PID.TID 0000.0001)                 4.909074590409593E+10,      /* J =  5 */
(PID.TID 0000.0001)                 5.581203765722643E+10,      /* J =  6 */
(PID.TID 0000.0001)                 6.193257577506788E+10,      /* J =  7 */
(PID.TID 0000.0001)                 6.748840226738273E+10,      /* J =  8 */
(PID.TID 0000.0001)                 7.248875782324815E+10,      /* J =  9 */
(PID.TID 0000.0001)                 7.692702995909871E+10,      /* J = 10 */
(PID.TID 0000.0001)                 8.078743937057304E+10,      /* J = 11 */
(PID.TID 0000.0001)                 8.404959656062837E+10,      /* J = 12 */
(PID.TID 0000.0001)                 8.669186205742538E+10,      /* J = 13 */
(PID.TID 0000.0001)                 8.869393350723613E+10,      /* J = 14 */
(PID.TID 0000.0001)                 9.003884657168852E+10,      /* J = 15 */
(PID.TID 0000.0001)     2 @  9.071447638299399E+10,             /* J = 16: 17 */
(PID.TID 0000.0001)                 9.003884657168852E+10,      /* J = 18 */
(PID.TID 0000.0001)                 8.869393350723613E+10,      /* J = 19 */
(PID.TID 0000.0001)                 8.669186205742538E+10,      /* J = 20 */
(PID.TID 0000.0001)                 8.404959656062837E+10,      /* J = 21 */
(PID.TID 0000.0001)                 8.078743937057304E+10,      /* J = 22 */
(PID.TID 0000.0001)                 7.692702995909871E+10,      /* J = 23 */
(PID.TID 0000.0001)                 7.248875782324815E+10,      /* J = 24 */
(PID.TID 0000.0001)                 6.748840226738273E+10,      /* J = 25 */
(PID.TID 0000.0001)                 6.193257577506788E+10,      /* J = 26 */
(PID.TID 0000.0001)                 5.581203765722643E+10,      /* J = 27 */
(PID.TID 0000.0001)                 4.909074590409593E+10,      /* J = 28 */
(PID.TID 0000.0001)                 4.168532893152940E+10,      /* J = 29 */
(PID.TID 0000.0001)                 3.341968103208270E+10,      /* J = 30 */
(PID.TID 0000.0001)                 2.390126200743558E+10,      /* J = 31 */
(PID.TID 0000.0001)                 1.216690346714270E+10       /* J = 32 */
(PID.TID 0000.0001)     ;
(PID.TID 0000.0001) rAs =  /* rAs(:,1,:,1) ( m - cartesian, degrees - spherical ) */
(PID.TID 0000.0001)                 1.216690346714270E+10,      /* I =  1 */
(PID.TID 0000.0001)                 2.390126200743558E+10,      /* I =  2 */
(PID.TID 0000.0001)                 3.341968103208270E+10,      /* I =  3 */
(PID.TID 0000.0001)                 4.168532893152940E+10,      /* I =  4 */
(PID.TID 0000.0001)                 4.909074590409593E+10,      /* I =  5 */
(PID.TID 0000.0001)                 5.581203765722643E+10,      /* I =  6 */
(PID.TID 0000.0001)                 6.193257577506788E+10,      /* I =  7 */
(PID.TID 0000.0001)                 6.748840226738273E+10,      /* I =  8 */
(PID.TID 0000.0001)                 7.248875782324815E+10,      /* I =  9 */
(PID.TID 0000.0001)                 7.692702995909871E+10,      /* I = 10 */
(PID.TID 0000.0001)                 8.078743937057304E+10,      /* I = 11 */
(PID.TID 0000.0001)                 8.404959656062837E+10,      /* I = 12 */
(PID.TID 0000.0001)                 8.669186205742538E+10,      /* I = 13 */
(PID.TID 0000.0001)                 8.869393350723613E+10,      /* I = 14 */
(PID.TID 0000.0001)                 9.003884657168852E+10,      /* I = 15 */
(PID.TID 0000.0001)     2 @  9.071447638299399E+10,             /* I = 16: 17 */
(PID.TID 0000.0001)                 9.003884657168852E+10,      /* I = 18 */
(PID.TID 0000.0001)                 8.869393350723613E+10,      /* I = 19 */
(PID.TID 0000.0001)                 8.669186205742538E+10,      /* I = 20 */
(PID.TID 0000.0001)                 8.404959656062837E+10,      /* I = 21 */
(PID.TID 0000.0001)                 8.078743937057304E+10,      /* I = 22 */
(PID.TID 0000.0001)                 7.692702995909871E+10,      /* I = 23 */
(PID.TID 0000.0001)                 7.248875782324815E+10,      /* I = 24 */
(PID.TID 0000.0001)                 6.748840226738273E+10,      /* I = 25 */
(PID.TID 0000.0001)                 6.193257577506788E+10,      /* I = 26 */
(PID.TID 0000.0001)                 5.581203765722643E+10,      /* I = 27 */
(PID.TID 0000.0001)                 4.909074590409593E+10,      /* I = 28 */
(PID.TID 0000.0001)                 4.168532893152940E+10,      /* I = 29 */
(PID.TID 0000.0001)                 3.341968103208270E+10,      /* I = 30 */
(PID.TID 0000.0001)                 2.390126200743558E+10,      /* I = 31 */
(PID.TID 0000.0001)     2 @  1.216690346714270E+10,             /* I = 32: 33 */
(PID.TID 0000.0001)                 2.390126200743558E+10,      /* I = 34 */
(PID.TID 0000.0001)                 3.341968103208270E+10,      /* I = 35 */
(PID.TID 0000.0001)                 4.168532893152940E+10,      /* I = 36 */
(PID.TID 0000.0001)                 4.909074590409593E+10,      /* I = 37 */
(PID.TID 0000.0001)                 5.581203765722643E+10,      /* I = 38 */
(PID.TID 0000.0001)                 6.193257577506788E+10,      /* I = 39 */
(PID.TID 0000.0001)                 6.748840226738273E+10,      /* I = 40 */
(PID.TID 0000.0001)                 7.248875782324815E+10,      /* I = 41 */
(PID.TID 0000.0001)                 7.692702995909871E+10,      /* I = 42 */
(PID.TID 0000.0001)                 8.078743937057304E+10,      /* I = 43 */
(PID.TID 0000.0001)                 8.404959656062837E+10,      /* I = 44 */
(PID.TID 0000.0001)                 8.669186205742538E+10,      /* I = 45 */
(PID.TID 0000.0001)                 8.869393350723613E+10,      /* I = 46 */
(PID.TID 0000.0001)                 9.003884657168852E+10,      /* I = 47 */
(PID.TID 0000.0001)     2 @  9.071447638299399E+10,             /* I = 48: 49 */
(PID.TID 0000.0001)                 9.003884657168852E+10,      /* I = 50 */
(PID.TID 0000.0001)                 8.869393350723613E+10,      /* I = 51 */
(PID.TID 0000.0001)                 8.669186205742538E+10,      /* I = 52 */
(PID.TID 0000.0001)                 8.404959656062837E+10,      /* I = 53 */
(PID.TID 0000.0001)                 8.078743937057304E+10,      /* I = 54 */
(PID.TID 0000.0001)                 7.692702995909871E+10,      /* I = 55 */
(PID.TID 0000.0001)                 7.248875782324815E+10,      /* I = 56 */
(PID.TID 0000.0001)                 6.748840226738273E+10,      /* I = 57 */
(PID.TID 0000.0001)                 6.193257577506788E+10,      /* I = 58 */
(PID.TID 0000.0001)                 5.581203765722643E+10,      /* I = 59 */
(PID.TID 0000.0001)                 4.909074590409593E+10,      /* I = 60 */
(PID.TID 0000.0001)                 4.168532893152940E+10,      /* I = 61 */
(PID.TID 0000.0001)                 3.341968103208270E+10,      /* I = 62 */
(PID.TID 0000.0001)                 2.390126200743558E+10,      /* I = 63 */
(PID.TID 0000.0001)     2 @  1.216690346714270E+10,             /* I = 64: 65 */
(PID.TID 0000.0001)                 2.390126200743558E+10,      /* I = 66 */
(PID.TID 0000.0001)                 3.341968103208270E+10,      /* I = 67 */
(PID.TID 0000.0001)                 4.168532893152940E+10,      /* I = 68 */
(PID.TID 0000.0001)                 4.909074590409593E+10,      /* I = 69 */
(PID.TID 0000.0001)                 5.581203765722643E+10,      /* I = 70 */
(PID.TID 0000.0001)                 6.193257577506788E+10,      /* I = 71 */
(PID.TID 0000.0001)                 6.748840226738273E+10,      /* I = 72 */
(PID.TID 0000.0001)                 7.248875782324815E+10,      /* I = 73 */
(PID.TID 0000.0001)                 7.692702995909871E+10,      /* I = 74 */
(PID.TID 0000.0001)                 8.078743937057304E+10,      /* I = 75 */
(PID.TID 0000.0001)                 8.404959656062837E+10,      /* I = 76 */
(PID.TID 0000.0001)                 8.669186205742538E+10,      /* I = 77 */
(PID.TID 0000.0001)                 8.869393350723613E+10,      /* I = 78 */
(PID.TID 0000.0001)                 9.003884657168852E+10,      /* I = 79 */
(PID.TID 0000.0001)     2 @  9.071447638299399E+10,             /* I = 80: 81 */
(PID.TID 0000.0001)                 9.003884657168852E+10,      /* I = 82 */
(PID.TID 0000.0001)                 8.869393350723613E+10,      /* I = 83 */
(PID.TID 0000.0001)                 8.669186205742538E+10,      /* I = 84 */
(PID.TID 0000.0001)                 8.404959656062837E+10,      /* I = 85 */
(PID.TID 0000.0001)                 8.078743937057304E+10,      /* I = 86 */
(PID.TID 0000.0001)                 7.692702995909871E+10,      /* I = 87 */
(PID.TID 0000.0001)                 7.248875782324815E+10,      /* I = 88 */
(PID.TID 0000.0001)                 6.748840226738273E+10,      /* I = 89 */
(PID.TID 0000.0001)                 6.193257577506788E+10,      /* I = 90 */
(PID.TID 0000.0001)                 5.581203765722643E+10,      /* I = 91 */
(PID.TID 0000.0001)                 4.909074590409593E+10,      /* I = 92 */
(PID.TID 0000.0001)                 4.168532893152940E+10,      /* I = 93 */
(PID.TID 0000.0001)                 3.341968103208270E+10,      /* I = 94 */
(PID.TID 0000.0001)                 2.390126200743558E+10,      /* I = 95 */
(PID.TID 0000.0001)     2 @  1.216690346714270E+10,             /* I = 96: 97 */
(PID.TID 0000.0001)                 2.390126200743558E+10,      /* I = 98 */
(PID.TID 0000.0001)                 3.341968103208270E+10,      /* I = 99 */
(PID.TID 0000.0001)                 4.168532893152940E+10,      /* I =100 */
(PID.TID 0000.0001)                 4.909074590409593E+10,      /* I =101 */
(PID.TID 0000.0001)                 5.581203765722643E+10,      /* I =102 */
(PID.TID 0000.0001)                 6.193257577506788E+10,      /* I =103 */
(PID.TID 0000.0001)                 6.748840226738273E+10,      /* I =104 */
(PID.TID 0000.0001)                 7.248875782324815E+10,      /* I =105 */
(PID.TID 0000.0001)                 7.692702995909871E+10,      /* I =106 */
(PID.TID 0000.0001)                 8.078743937057304E+10,      /* I =107 */
(PID.TID 0000.0001)                 8.404959656062837E+10,      /* I =108 */
(PID.TID 0000.0001)                 8.669186205742538E+10,      /* I =109 */
(PID.TID 0000.0001)                 8.869393350723613E+10,      /* I =110 */
(PID.TID 0000.0001)                 9.003884657168852E+10,      /* I =111 */
(PID.TID 0000.0001)     2 @  9.071447638299399E+10,             /* I =112:113 */
(PID.TID 0000.0001)                 9.003884657168852E+10,      /* I =114 */
(PID.TID 0000.0001)                 8.869393350723613E+10,      /* I =115 */
(PID.TID 0000.0001)                 8.669186205742538E+10,      /* I =116 */
(PID.TID 0000.0001)                 8.404959656062837E+10,      /* I =117 */
(PID.TID 0000.0001)                 8.078743937057304E+10,      /* I =118 */
(PID.TID 0000.0001)                 7.692702995909871E+10,      /* I =119 */
(PID.TID 0000.0001)                 7.248875782324815E+10,      /* I =120 */
(PID.TID 0000.0001)                 6.748840226738273E+10,      /* I =121 */
(PID.TID 0000.0001)                 6.193257577506788E+10,      /* I =122 */
(PID.TID 0000.0001)                 5.581203765722643E+10,      /* I =123 */
(PID.TID 0000.0001)                 4.909074590409593E+10,      /* I =124 */
(PID.TID 0000.0001)                 4.168532893152940E+10,      /* I =125 */
(PID.TID 0000.0001)                 3.341968103208270E+10,      /* I =126 */
(PID.TID 0000.0001)                 2.390126200743558E+10,      /* I =127 */
(PID.TID 0000.0001)     2 @  1.216690346714270E+10,             /* I =128:129 */
(PID.TID 0000.0001)                 2.390126200743558E+10,      /* I =130 */
(PID.TID 0000.0001)                 3.341968103208270E+10,      /* I =131 */
(PID.TID 0000.0001)                 4.168532893152940E+10,      /* I =132 */
(PID.TID 0000.0001)                 4.909074590409593E+10,      /* I =133 */
(PID.TID 0000.0001)                 5.581203765722643E+10,      /* I =134 */
(PID.TID 0000.0001)                 6.193257577506788E+10,      /* I =135 */
(PID.TID 0000.0001)                 6.748840226738273E+10,      /* I =136 */
(PID.TID 0000.0001)                 7.248875782324815E+10,      /* I =137 */
(PID.TID 0000.0001)                 7.692702995909871E+10,      /* I =138 */
(PID.TID 0000.0001)                 8.078743937057304E+10,      /* I =139 */
(PID.TID 0000.0001)                 8.404959656062837E+10,      /* I =140 */
(PID.TID 0000.0001)                 8.669186205742538E+10,      /* I =141 */
(PID.TID 0000.0001)                 8.869393350723613E+10,      /* I =142 */
(PID.TID 0000.0001)                 9.003884657168852E+10,      /* I =143 */
(PID.TID 0000.0001)     2 @  9.071447638299399E+10,             /* I =144:145 */
(PID.TID 0000.0001)                 9.003884657168852E+10,      /* I =146 */
(PID.TID 0000.0001)                 8.869393350723613E+10,      /* I =147 */
(PID.TID 0000.0001)                 8.669186205742538E+10,      /* I =148 */
(PID.TID 0000.0001)                 8.404959656062837E+10,      /* I =149 */
(PID.TID 0000.0001)                 8.078743937057304E+10,      /* I =150 */
(PID.TID 0000.0001)                 7.692702995909871E+10,      /* I =151 */
(PID.TID 0000.0001)                 7.248875782324815E+10,      /* I =152 */
(PID.TID 0000.0001)                 6.748840226738273E+10,      /* I =153 */
(PID.TID 0000.0001)                 6.193257577506788E+10,      /* I =154 */
(PID.TID 0000.0001)                 5.581203765722643E+10,      /* I =155 */
(PID.TID 0000.0001)                 4.909074590409593E+10,      /* I =156 */
(PID.TID 0000.0001)                 4.168532893152940E+10,      /* I =157 */
(PID.TID 0000.0001)                 3.341968103208270E+10,      /* I =158 */
(PID.TID 0000.0001)                 2.390126200743558E+10,      /* I =159 */
(PID.TID 0000.0001)     2 @  1.216690346714270E+10,             /* I =160:161 */
(PID.TID 0000.0001)                 2.390126200743558E+10,      /* I =162 */
(PID.TID 0000.0001)                 3.341968103208270E+10,      /* I =163 */
(PID.TID 0000.0001)                 4.168532893152940E+10,      /* I =164 */
(PID.TID 0000.0001)                 4.909074590409593E+10,      /* I =165 */
(PID.TID 0000.0001)                 5.581203765722643E+10,      /* I =166 */
(PID.TID 0000.0001)                 6.193257577506788E+10,      /* I =167 */
(PID.TID 0000.0001)                 6.748840226738273E+10,      /* I =168 */
(PID.TID 0000.0001)                 7.248875782324815E+10,      /* I =169 */
(PID.TID 0000.0001)                 7.692702995909871E+10,      /* I =170 */
(PID.TID 0000.0001)                 8.078743937057304E+10,      /* I =171 */
(PID.TID 0000.0001)                 8.404959656062837E+10,      /* I =172 */
(PID.TID 0000.0001)                 8.669186205742538E+10,      /* I =173 */
(PID.TID 0000.0001)                 8.869393350723613E+10,      /* I =174 */
(PID.TID 0000.0001)                 9.003884657168852E+10,      /* I =175 */
(PID.TID 0000.0001)     2 @  9.071447638299399E+10,             /* I =176:177 */
(PID.TID 0000.0001)                 9.003884657168852E+10,      /* I =178 */
(PID.TID 0000.0001)                 8.869393350723613E+10,      /* I =179 */
(PID.TID 0000.0001)                 8.669186205742538E+10,      /* I =180 */
(PID.TID 0000.0001)                 8.404959656062837E+10,      /* I =181 */
(PID.TID 0000.0001)                 8.078743937057304E+10,      /* I =182 */
(PID.TID 0000.0001)                 7.692702995909871E+10,      /* I =183 */
(PID.TID 0000.0001)                 7.248875782324815E+10,      /* I =184 */
(PID.TID 0000.0001)                 6.748840226738273E+10,      /* I =185 */
(PID.TID 0000.0001)                 6.193257577506788E+10,      /* I =186 */
(PID.TID 0000.0001)                 5.581203765722643E+10,      /* I =187 */
(PID.TID 0000.0001)                 4.909074590409593E+10,      /* I =188 */
(PID.TID 0000.0001)                 4.168532893152940E+10,      /* I =189 */
(PID.TID 0000.0001)                 3.341968103208270E+10,      /* I =190 */
(PID.TID 0000.0001)                 2.390126200743558E+10,      /* I =191 */
(PID.TID 0000.0001)                 1.216690346714270E+10       /* I =192 */
(PID.TID 0000.0001)     ;
(PID.TID 0000.0001) rAs =  /* rAs(1,:,1,:) ( m - cartesian, degrees - spherical ) */
(PID.TID 0000.0001)                 1.216690346714270E+10,      /* J =  1 */
(PID.TID 0000.0001)                 1.974052138506315E+10,      /* J =  2 */
(PID.TID 0000.0001)                 2.943712825252015E+10,      /* J =  3 */
(PID.TID 0000.0001)                 3.801790263324359E+10,      /* J =  4 */
(PID.TID 0000.0001)                 4.571243814189866E+10,      /* J =  5 */
(PID.TID 0000.0001)                 5.269930713599979E+10,      /* J =  6 */
(PID.TID 0000.0001)                 5.907428494299063E+10,      /* J =  7 */
(PID.TID 0000.0001)                 6.488320895111514E+10,      /* J =  8 */
(PID.TID 0000.0001)                 7.014205907741882E+10,      /* J =  9 */
(PID.TID 0000.0001)                 7.484854821847499E+10,      /* J = 10 */
(PID.TID 0000.0001)                 7.898934631431560E+10,      /* J = 11 */
(PID.TID 0000.0001)                 8.254500894894537E+10,      /* J = 12 */
(PID.TID 0000.0001)                 8.549360686473492E+10,      /* J = 13 */
(PID.TID 0000.0001)                 8.781353403175085E+10,      /* J = 14 */
(PID.TID 0000.0001)                 8.948571540392021E+10,      /* J = 15 */
(PID.TID 0000.0001)                 9.049530583086168E+10,      /* J = 16 */
(PID.TID 0000.0001)                 9.083293515008307E+10,      /* J = 17 */
(PID.TID 0000.0001)                 9.049530583087070E+10,      /* J = 18 */
(PID.TID 0000.0001)                 8.948571540391121E+10,      /* J = 19 */
(PID.TID 0000.0001)                 8.781353403174185E+10,      /* J = 20 */
(PID.TID 0000.0001)                 8.549360686467184E+10,      /* J = 21 */
(PID.TID 0000.0001)                 8.254500894890933E+10,      /* J = 22 */
(PID.TID 0000.0001)                 7.898934631434262E+10,      /* J = 23 */
(PID.TID 0000.0001)                 7.484854821844795E+10,      /* J = 24 */
(PID.TID 0000.0001)                 7.014205907742783E+10,      /* J = 25 */
(PID.TID 0000.0001)                 6.488320895111514E+10,      /* J = 26 */
(PID.TID 0000.0001)                 5.907428494299063E+10,      /* J = 27 */
(PID.TID 0000.0001)                 5.269930713599078E+10,      /* J = 28 */
(PID.TID 0000.0001)                 4.571243814190767E+10,      /* J = 29 */
(PID.TID 0000.0001)                 3.801790263325260E+10,      /* J = 30 */
(PID.TID 0000.0001)                 2.943712825251114E+10,      /* J = 31 */
(PID.TID 0000.0001)                 1.974052138509018E+10       /* J = 32 */
(PID.TID 0000.0001)     ;
(PID.TID 0000.0001) 
(PID.TID 0000.0001)  MDSREADFIELD: opening global file: pickup.0000276480
(PID.TID 0000.0001)  MDSREADFIELD: opening global file: pickup.0000276480
(PID.TID 0000.0001)  MDSREADFIELD: opening global file: pickup.0000276480
(PID.TID 0000.0001)  MDSREADFIELD: opening global file: pickup.0000276480
(PID.TID 0000.0001)  MDSREADFIELD: opening global file: pickup.0000276480
(PID.TID 0000.0001)  MDSREADFIELD: opening global file: pickup.0000276480
(PID.TID 0000.0001)  MDSREADFIELD: opening global file: pickup.0000276480
(PID.TID 0000.0001)  MDSREADFIELD: opening global file: pickup.0000276480
(PID.TID 0000.0001)  MDSREADFIELD: opening global file: pickup.0000276480
(PID.TID 0000.0001)  MDSREADFIELD: opening global file: pickup.0000276480
(PID.TID 0000.0001)  MDSREADFIELD: opening global file: pickup.0000276480
(PID.TID 0000.0001) DIAGSTATS_INI_IO: open file: dynStDiag.0000276480.txt , unit=     9
(PID.TID 0000.0001)  write diagnostics summary to file ioUnit:      6
Iter.Nb:    276480 ; Time(s):  1.2441600000000E+08
------------------------------------------------------------------------
2D/3D diagnostics: Number of lists:     3
------------------------------------------------------------------------
listId=   1 ; file name: surfDiag
 nFlds, nActive,       freq     &   phase        , nLev                 
   3  |   3  |     86400.000000         0.000000 |   1
 levels:   1
 diag#| name   | ipt  | iMate| kLev| count | mate.C|                    
   23 |ETAN    |    1 |    0 |   1 |     0 |
   24 |ETANSQ  |    2 |    0 |   1 |     0 |
   25 |DETADT2 |    3 |    0 |   1 |     0 |
------------------------------------------------------------------------
listId=   2 ; file name: dynDiag
 nFlds, nActive,       freq     &   phase        , nLev                 
   5  |   5  |     86400.000000         0.000000 |  20
 levels:   1   2   3   4   5   6   7   8   9  10  11  12  13  14  15  16  17  18  19  20
 diag#| name   | ipt  | iMate| kLev| count | mate.C|                    
   30 |UVEL    |    4 |   24 |  20 |     0 |     0 |
   31 |VVEL    |   24 |    4 |  20 |     0 |     0 |
   32 |WVEL    |   44 |    0 |  20 |     0 |
   26 |THETA   |   64 |    0 |  20 |     0 |
  147 |SHAP_dU |   84 |    0 |  20 |     0 |
------------------------------------------------------------------------
listId=   3 ; file name: secmomDiag
 nFlds, nActive,       freq     &   phase        , nLev                 
   8  |   8  |     86400.000000         0.000000 |  20
 levels:   1   2   3   4   5   6   7   8   9  10  11  12  13  14  15  16  17  18  19  20
 diag#| name   | ipt  | iMate| kLev| count | mate.C|                    
   36 |UVELSQ  |  104 |  124 |  20 |     0 |     0 |
   37 |VVELSQ  |  124 |  104 |  20 |     0 |     0 |
   38 |WVELSQ  |  144 |    0 |  20 |     0 |
   33 |THETASQ |  164 |    0 |  20 |     0 |
   46 |UTHMASS |  184 |  204 |  20 |     0 |     0 |
   47 |VTHMASS |  204 |  184 |  20 |     0 |     0 |
   54 |WVELTH  |  224 |    0 |  20 |     0 |
   39 |UV_VEL_C|  244 |  244 |  20 |     0 |     0 |
------------------------------------------------------------------------
Global & Regional Statistics diagnostics: Number of lists:     1
------------------------------------------------------------------------
listId=   1 ; file name: dynStDiag
 nFlds, nActive,       freq     &   phase        |                      
   5  |   5  |     -3600.000000      1800.000000 |
 Regions:   0
 diag#| name   | ipt  | iMate|    Volume   |   mate-Vol. |              
   23 |ETAN    |    1 |    0 | 0.00000E+00 |
   30 |UVEL    |    2 |    0 | 0.00000E+00 |
   31 |VVEL    |   22 |    0 | 0.00000E+00 |
   32 |WVEL    |   42 |    0 | 0.00000E+00 |
   26 |THETA   |   62 |    0 | 0.00000E+00 |
------------------------------------------------------------------------
(PID.TID 0000.0001) // =======================================================
(PID.TID 0000.0001) // Model current state
(PID.TID 0000.0001) // =======================================================
(PID.TID 0000.0001) 
(PID.TID 0000.0001) // =======================================================
(PID.TID 0000.0001) // Begin MONITOR dynamic field statistics
(PID.TID 0000.0001) // =======================================================
(PID.TID 0000.0001) %MON time_tsnumber                =                276480
(PID.TID 0000.0001) %MON time_secondsf                =   1.2441600000000E+08
(PID.TID 0000.0001) %MON dynstat_eta_max              =   2.5686020507311E+03
(PID.TID 0000.0001) %MON dynstat_eta_min              =  -3.5034391132246E+03
(PID.TID 0000.0001) %MON dynstat_eta_mean             =  -2.1849430582181E-13
(PID.TID 0000.0001) %MON dynstat_eta_sd               =   8.2461825997798E+02
(PID.TID 0000.0001) %MON dynstat_eta_del2             =   3.1340877528259E+01
(PID.TID 0000.0001) %MON dynstat_uvel_max             =   6.7214548915456E+01
(PID.TID 0000.0001) %MON dynstat_uvel_min             =  -6.6409813499555E+01
(PID.TID 0000.0001) %MON dynstat_uvel_mean            =   2.0486719779662E+00
(PID.TID 0000.0001) %MON dynstat_uvel_sd              =   1.1160413327161E+01
(PID.TID 0000.0001) %MON dynstat_uvel_del2            =   6.7742105847302E-01
(PID.TID 0000.0001) %MON dynstat_vvel_max             =   7.1882586801982E+01
(PID.TID 0000.0001) %MON dynstat_vvel_min             =  -6.8638934014956E+01
(PID.TID 0000.0001) %MON dynstat_vvel_mean            =   2.0133330339157E+00
(PID.TID 0000.0001) %MON dynstat_vvel_sd              =   1.1670343153922E+01
(PID.TID 0000.0001) %MON dynstat_vvel_del2            =   7.0038478564908E-01
(PID.TID 0000.0001) %MON dynstat_wvel_max             =   8.3338352054040E-01
(PID.TID 0000.0001) %MON dynstat_wvel_min             =  -6.6411583834321E-01
(PID.TID 0000.0001) %MON dynstat_wvel_mean            =  -3.3792158794203E-18
(PID.TID 0000.0001) %MON dynstat_wvel_sd              =   6.6034456847098E-02
(PID.TID 0000.0001) %MON dynstat_wvel_del2            =   1.1197571202444E-02
(PID.TID 0000.0001) %MON dynstat_theta_max            =   5.9603304952318E+02
(PID.TID 0000.0001) %MON dynstat_theta_min            =   2.6185719063325E+02
(PID.TID 0000.0001) %MON dynstat_theta_mean           =   3.2766072081677E+02
(PID.TID 0000.0001) %MON dynstat_theta_sd             =   6.3757555232907E+01
(PID.TID 0000.0001) %MON dynstat_theta_del2           =   3.8530799307984E-01
(PID.TID 0000.0001) %MON dynstat_salt_max             =   0.0000000000000E+00
(PID.TID 0000.0001) %MON dynstat_salt_min             =   0.0000000000000E+00
(PID.TID 0000.0001) %MON dynstat_salt_mean            =   0.0000000000000E+00
(PID.TID 0000.0001) %MON dynstat_salt_sd              =   0.0000000000000E+00
(PID.TID 0000.0001) %MON dynstat_salt_del2            =   0.0000000000000E+00
(PID.TID 0000.0001) %MON advcfl_uvel_max              =   2.6821335333544E-01
(PID.TID 0000.0001) %MON advcfl_vvel_max              =   2.2671784577986E-01
(PID.TID 0000.0001) %MON advcfl_wvel_max              =   7.5004516848636E-02
(PID.TID 0000.0001) %MON advcfl_W_hf_max              =   7.4169071807869E-02
(PID.TID 0000.0001) %MON pe_b_mean                    =   2.8791077644082E+00
(PID.TID 0000.0001) %MON ke_max                       =   3.2602670775050E+03
(PID.TID 0000.0001) %MON ke_mean                      =   1.3446589237618E+02
(PID.TID 0000.0001) %MON ke_vol                       =   5.0990436378173E+19
(PID.TID 0000.0001) %MON vort_r_min                   =  -1.7768497633397E-04
(PID.TID 0000.0001) %MON vort_r_max                   =   2.2145611811367E-04
(PID.TID 0000.0001) %MON vort_a_mean                  =  -3.1867617259207E-20
(PID.TID 0000.0001) %MON vort_a_sd                    =   8.8620239601413E-05
(PID.TID 0000.0001) %MON vort_p_mean                  =  -2.9416243551483E-20
(PID.TID 0000.0001) %MON vort_p_sd                    =   8.8695764907692E-05
(PID.TID 0000.0001) %MON surfExpan_theta_mean         =  -1.6723049831638E-03
(PID.TID 0000.0001) %MON surfExpan_salt_mean          =   0.0000000000000E+00
(PID.TID 0000.0001) %MON surfExpan_Heat_mean          =  -2.1332029750089E-01
(PID.TID 0000.0001) %MON En_Budget_T2PE_mean          =   1.1463630872654E+00
(PID.TID 0000.0001) // =======================================================
(PID.TID 0000.0001) // End MONITOR dynamic field statistics
(PID.TID 0000.0001) // =======================================================
 cg2d: Sum(rhs),rhsMax =   5.35510480403900E-09  1.60257563765272E+04
(PID.TID 0000.0001)                    cg2d_init_res =    1.53876818374130E+03
(PID.TID 0000.0001)                       cg2d_iters =    16
(PID.TID 0000.0001)                         cg2d_res =    3.51153176838992E-11
(PID.TID 0000.0001) // =======================================================
(PID.TID 0000.0001) // Begin MONITOR dynamic field statistics
(PID.TID 0000.0001) // =======================================================
(PID.TID 0000.0001) %MON time_tsnumber                =                276481
(PID.TID 0000.0001) %MON time_secondsf                =   1.2441645000000E+08
(PID.TID 0000.0001) %MON dynstat_eta_max              =   2.5648829557404E+03
(PID.TID 0000.0001) %MON dynstat_eta_min              =  -3.5042030966145E+03
(PID.TID 0000.0001) %MON dynstat_eta_mean             =  -2.1206800270941E-13
(PID.TID 0000.0001) %MON dynstat_eta_sd               =   8.2420583316044E+02
(PID.TID 0000.0001) %MON dynstat_eta_del2             =   3.1328729802898E+01
(PID.TID 0000.0001) %MON dynstat_uvel_max             =   6.7206660248221E+01
(PID.TID 0000.0001) %MON dynstat_uvel_min             =  -6.6456981066028E+01
(PID.TID 0000.0001) %MON dynstat_uvel_mean            =   2.0479882431745E+00
(PID.TID 0000.0001) %MON dynstat_uvel_sd              =   1.1159036991550E+01
(PID.TID 0000.0001) %MON dynstat_uvel_del2            =   6.7732715890808E-01
(PID.TID 0000.0001) %MON dynstat_vvel_max             =   7.1922729969087E+01
(PID.TID 0000.0001) %MON dynstat_vvel_min             =  -6.8638363031224E+01
(PID.TID 0000.0001) %MON dynstat_vvel_mean            =   2.0123999821178E+00
(PID.TID 0000.0001) %MON dynstat_vvel_sd              =   1.1668927627001E+01
(PID.TID 0000.0001) %MON dynstat_vvel_del2            =   7.0020592949908E-01
(PID.TID 0000.0001) %MON dynstat_wvel_max             =   8.2554947005528E-01
(PID.TID 0000.0001) %MON dynstat_wvel_min             =  -6.6631438224463E-01
(PID.TID 0000.0001) %MON dynstat_wvel_mean            =   1.5769674103961E-17
(PID.TID 0000.0001) %MON dynstat_wvel_sd              =   6.6029833455958E-02
(PID.TID 0000.0001) %MON dynstat_wvel_del2            =   1.1198884510386E-02
(PID.TID 0000.0001) %MON dynstat_theta_max            =   5.9601827591607E+02
(PID.TID 0000.0001) %MON dynstat_theta_min            =   2.6186133417432E+02
(PID.TID 0000.0001) %MON dynstat_theta_mean           =   3.2766072872982E+02
(PID.TID 0000.0001) %MON dynstat_theta_sd             =   6.3757549710233E+01
(PID.TID 0000.0001) %MON dynstat_theta_del2           =   3.8532270911564E-01
(PID.TID 0000.0001) %MON dynstat_salt_max             =   0.0000000000000E+00
(PID.TID 0000.0001) %MON dynstat_salt_min             =   0.0000000000000E+00
(PID.TID 0000.0001) %MON dynstat_salt_mean            =   0.0000000000000E+00
(PID.TID 0000.0001) %MON dynstat_salt_sd              =   0.0000000000000E+00
(PID.TID 0000.0001) %MON dynstat_salt_del2            =   0.0000000000000E+00
(PID.TID 0000.0001) %MON advcfl_uvel_max              =   2.6840385185525E-01
(PID.TID 0000.0001) %MON advcfl_vvel_max              =   2.2664311605457E-01
(PID.TID 0000.0001) %MON advcfl_wvel_max              =   7.4299452304975E-02
(PID.TID 0000.0001) %MON advcfl_W_hf_max              =   7.3471734843199E-02
(PID.TID 0000.0001) %MON pe_b_mean                    =   2.8762285550330E+00
(PID.TID 0000.0001) %MON ke_max                       =   3.2583352033777E+03
(PID.TID 0000.0001) %MON ke_mean                      =   1.3443073062463E+02
(PID.TID 0000.0001) %MON ke_vol                       =   5.0990436378172E+19
(PID.TID 0000.0001) %MON vort_r_min                   =  -1.7792935341374E-04
(PID.TID 0000.0001) %MON vort_r_max                   =   2.2151977171503E-04
(PID.TID 0000.0001) %MON vort_a_mean                  =  -5.8832524170843E-20
(PID.TID 0000.0001) %MON vort_a_sd                    =   8.8618432167563E-05
(PID.TID 0000.0001) %MON vort_p_mean                  =  -5.8832487099273E-20
(PID.TID 0000.0001) %MON vort_p_sd                    =   8.8693885137586E-05
(PID.TID 0000.0001) %MON surfExpan_theta_mean         =  -1.6862777381968E-03
(PID.TID 0000.0001) %MON surfExpan_salt_mean          =   0.0000000000000E+00
(PID.TID 0000.0001) %MON surfExpan_Heat_mean          =  -2.1477676951862E-01
(PID.TID 0000.0001) %MON En_Budget_T2PE_mean          =   1.1461189847193E+00
(PID.TID 0000.0001) // =======================================================
(PID.TID 0000.0001) // End MONITOR dynamic field statistics
(PID.TID 0000.0001) // =======================================================
 cg2d: Sum(rhs),rhsMax =   5.12227416038513E-09  1.60276307490911E+04
(PID.TID 0000.0001)                    cg2d_init_res =    1.54478377138296E+03
(PID.TID 0000.0001)                       cg2d_iters =    16
(PID.TID 0000.0001)                         cg2d_res =    3.51180369539376E-11
(PID.TID 0000.0001) // =======================================================
(PID.TID 0000.0001) // Begin MONITOR dynamic field statistics
(PID.TID 0000.0001) // =======================================================
(PID.TID 0000.0001) %MON time_tsnumber                =                276482
(PID.TID 0000.0001) %MON time_secondsf                =   1.2441690000000E+08
(PID.TID 0000.0001) %MON dynstat_eta_max              =   2.5611441317187E+03
(PID.TID 0000.0001) %MON dynstat_eta_min              =  -3.5048839481833E+03
(PID.TID 0000.0001) %MON dynstat_eta_mean             =  -1.2209975913572E-13
(PID.TID 0000.0001) %MON dynstat_eta_sd               =   8.2379410296614E+02
(PID.TID 0000.0001) %MON dynstat_eta_del2             =   3.1319552927502E+01
(PID.TID 0000.0001) %MON dynstat_uvel_max             =   6.7198681820932E+01
(PID.TID 0000.0001) %MON dynstat_uvel_min             =  -6.6506255708445E+01
(PID.TID 0000.0001) %MON dynstat_uvel_mean            =   2.0473052713912E+00
(PID.TID 0000.0001) %MON dynstat_uvel_sd              =   1.1157669431080E+01
(PID.TID 0000.0001) %MON dynstat_uvel_del2            =   6.7723878590630E-01
(PID.TID 0000.0001) %MON dynstat_vvel_max             =   7.1961626179797E+01
(PID.TID 0000.0001) %MON dynstat_vvel_min             =  -6.8642030637362E+01
(PID.TID 0000.0001) %MON dynstat_vvel_mean            =   2.0114669693216E+00
(PID.TID 0000.0001) %MON dynstat_vvel_sd              =   1.1667507544596E+01
(PID.TID 0000.0001) %MON dynstat_vvel_del2            =   7.0002891320650E-01
(PID.TID 0000.0001) %MON dynstat_wvel_max             =   8.1718306219096E-01
(PID.TID 0000.0001) %MON dynstat_wvel_min             =  -6.6835700732692E-01
(PID.TID 0000.0001) %MON dynstat_wvel_mean            =  -2.8964707537888E-18
(PID.TID 0000.0001) %MON dynstat_wvel_sd              =   6.6026056168298E-02
(PID.TID 0000.0001) %MON dynstat_wvel_del2            =   1.1200326003912E-02
(PID.TID 0000.0001) %MON dynstat_theta_max            =   5.9600171575891E+02
(PID.TID 0000.0001) %MON dynstat_theta_min            =   2.6186621243193E+02
(PID.TID 0000.0001) %MON dynstat_theta_mean           =   3.2766074869452E+02
(PID.TID 0000.0001) %MON dynstat_theta_sd             =   6.3757536705413E+01
(PID.TID 0000.0001) %MON dynstat_theta_del2           =   3.8528353249985E-01
(PID.TID 0000.0001) %MON dynstat_salt_max             =   0.0000000000000E+00
(PID.TID 0000.0001) %MON dynstat_salt_min             =   0.0000000000000E+00
(PID.TID 0000.0001) %MON dynstat_salt_mean            =   0.0000000000000E+00
(PID.TID 0000.0001) %MON dynstat_salt_sd              =   0.0000000000000E+00
(PID.TID 0000.0001) %MON dynstat_salt_del2            =   0.0000000000000E+00
(PID.TID 0000.0001) %MON advcfl_uvel_max              =   2.6860286035084E-01
(PID.TID 0000.0001) %MON advcfl_vvel_max              =   2.2656117618696E-01
(PID.TID 0000.0001) %MON advcfl_wvel_max              =   7.3546475597186E-02
(PID.TID 0000.0001) %MON advcfl_W_hf_max              =   7.2727021285685E-02
(PID.TID 0000.0001) %MON pe_b_mean                    =   2.8733556456106E+00
(PID.TID 0000.0001) %MON ke_max                       =   3.2561031556890E+03
(PID.TID 0000.0001) %MON ke_mean                      =   1.3439562103638E+02
(PID.TID 0000.0001) %MON ke_vol                       =   5.0990436378172E+19
(PID.TID 0000.0001) %MON vort_r_min                   =  -1.7813179913177E-04
(PID.TID 0000.0001) %MON vort_r_max                   =   2.2156149218056E-04
(PID.TID 0000.0001) %MON vort_a_mean                  =   4.9027103475702E-20
(PID.TID 0000.0001) %MON vort_a_sd                    =   8.8616623088023E-05
(PID.TID 0000.0001) %MON vort_p_mean                  =   4.4124365323563E-20
(PID.TID 0000.0001) %MON vort_p_sd                    =   8.8692003508674E-05
(PID.TID 0000.0001) %MON surfExpan_theta_mean         =  -1.7050912771689E-03
(PID.TID 0000.0001) %MON surfExpan_salt_mean          =   0.0000000000000E+00
(PID.TID 0000.0001) %MON surfExpan_Heat_mean          =  -2.1670952509409E-01
(PID.TID 0000.0001) %MON En_Budget_T2PE_mean          =   1.1458017994116E+00
(PID.TID 0000.0001) // =======================================================
(PID.TID 0000.0001) // End MONITOR dynamic field statistics
(PID.TID 0000.0001) // =======================================================
 cg2d: Sum(rhs),rhsMax =   4.42378222942352E-09  1.60290753275296E+04
(PID.TID 0000.0001)                    cg2d_init_res =    1.55066993606808E+03
(PID.TID 0000.0001)                       cg2d_iters =    16
(PID.TID 0000.0001)                         cg2d_res =    3.51259101825110E-11
(PID.TID 0000.0001) // =======================================================
(PID.TID 0000.0001) // Begin MONITOR dynamic field statistics
(PID.TID 0000.0001) // =======================================================
(PID.TID 0000.0001) %MON time_tsnumber                =                276483
(PID.TID 0000.0001) %MON time_secondsf                =   1.2441735000000E+08
(PID.TID 0000.0001) %MON dynstat_eta_max              =   2.5573842844812E+03
(PID.TID 0000.0001) %MON dynstat_eta_min              =  -3.5054797600162E+03
(PID.TID 0000.0001) %MON dynstat_eta_mean             =  -8.9968243573687E-14
(PID.TID 0000.0001) %MON dynstat_eta_sd               =   8.2338282131129E+02
(PID.TID 0000.0001) %MON dynstat_eta_del2             =   3.1310047321031E+01
(PID.TID 0000.0001) %MON dynstat_uvel_max             =   6.7190368804815E+01
(PID.TID 0000.0001) %MON dynstat_uvel_min             =  -6.6557306138459E+01
(PID.TID 0000.0001) %MON dynstat_uvel_mean            =   2.0466232134267E+00
(PID.TID 0000.0001) %MON dynstat_uvel_sd              =   1.1156311008531E+01
(PID.TID 0000.0001) %MON dynstat_uvel_del2            =   6.7714234549572E-01
(PID.TID 0000.0001) %MON dynstat_vvel_max             =   7.1999042504240E+01
(PID.TID 0000.0001) %MON dynstat_vvel_min             =  -6.8650267842100E+01
(PID.TID 0000.0001) %MON dynstat_vvel_mean            =   2.0105334508449E+00
(PID.TID 0000.0001) %MON dynstat_vvel_sd              =   1.1666082629371E+01
(PID.TID 0000.0001) %MON dynstat_vvel_del2            =   6.9984021150203E-01
(PID.TID 0000.0001) %MON dynstat_wvel_max             =   8.0877951974040E-01
(PID.TID 0000.0001) %MON dynstat_wvel_min             =  -6.7023324599024E-01
(PID.TID 0000.0001) %MON dynstat_wvel_mean            =   3.3792158794203E-18
(PID.TID 0000.0001) %MON dynstat_wvel_sd              =   6.6022671601113E-02
(PID.TID 0000.0001) %MON dynstat_wvel_del2            =   1.1201805828763E-02
(PID.TID 0000.0001) %MON dynstat_theta_max            =   5.9598511676921E+02
(PID.TID 0000.0001) %MON dynstat_theta_min            =   2.6187179779897E+02
(PID.TID 0000.0001) %MON dynstat_theta_mean           =   3.2766076854072E+02
(PID.TID 0000.0001) %MON dynstat_theta_sd             =   6.3757523828393E+01
(PID.TID 0000.0001) %MON dynstat_theta_del2           =   3.8523929473921E-01
(PID.TID 0000.0001) %MON dynstat_salt_max             =   0.0000000000000E+00
(PID.TID 0000.0001) %MON dynstat_salt_min             =   0.0000000000000E+00
(PID.TID 0000.0001) %MON dynstat_salt_mean            =   0.0000000000000E+00
(PID.TID 0000.0001) %MON dynstat_salt_sd              =   0.0000000000000E+00
(PID.TID 0000.0001) %MON dynstat_salt_del2            =   0.0000000000000E+00
(PID.TID 0000.0001) %MON advcfl_uvel_max              =   2.6880904082782E-01
(PID.TID 0000.0001) %MON advcfl_vvel_max              =   2.2647221296050E-01
(PID.TID 0000.0001) %MON advcfl_wvel_max              =   7.2790156776636E-02
(PID.TID 0000.0001) %MON advcfl_W_hf_max              =   7.2146577198086E-02
(PID.TID 0000.0001) %MON pe_b_mean                    =   2.8704872991088E+00
(PID.TID 0000.0001) %MON ke_max                       =   3.2535861476696E+03
(PID.TID 0000.0001) %MON ke_mean                      =   1.3436056365470E+02
(PID.TID 0000.0001) %MON ke_vol                       =   5.0990436378172E+19
(PID.TID 0000.0001) %MON vort_r_min                   =  -1.7829177687057E-04
(PID.TID 0000.0001) %MON vort_r_max                   =   2.2158120589090E-04
(PID.TID 0000.0001) %MON vort_a_mean                  =  -4.9027103475702E-20
(PID.TID 0000.0001) %MON vort_a_sd                    =   8.8614813238147E-05
(PID.TID 0000.0001) %MON vort_p_mean                  =  -5.1478426211414E-20
(PID.TID 0000.0001) %MON vort_p_sd                    =   8.8690120733057E-05
(PID.TID 0000.0001) %MON surfExpan_theta_mean         =  -1.7217575977171E-03
(PID.TID 0000.0001) %MON surfExpan_salt_mean          =   0.0000000000000E+00
(PID.TID 0000.0001) %MON surfExpan_Heat_mean          =  -2.1842603675776E-01
(PID.TID 0000.0001) %MON En_Budget_T2PE_mean          =   1.1455040054713E+00
(PID.TID 0000.0001) // =======================================================
(PID.TID 0000.0001) // End MONITOR dynamic field statistics
(PID.TID 0000.0001) // =======================================================
 cg2d: Sum(rhs),rhsMax =   5.82076609134674E-09  1.60300748012512E+04
(PID.TID 0000.0001)                    cg2d_init_res =    1.55641094053356E+03
(PID.TID 0000.0001)                       cg2d_iters =    16
(PID.TID 0000.0001)                         cg2d_res =    3.51338285850784E-11
(PID.TID 0000.0001) // =======================================================
(PID.TID 0000.0001) // Begin MONITOR dynamic field statistics
(PID.TID 0000.0001) // =======================================================
(PID.TID 0000.0001) %MON time_tsnumber                =                276484
(PID.TID 0000.0001) %MON time_secondsf                =   1.2441780000000E+08
(PID.TID 0000.0001) %MON dynstat_eta_max              =   2.5536022878267E+03
(PID.TID 0000.0001) %MON dynstat_eta_min              =  -3.5059890337007E+03
(PID.TID 0000.0001) %MON dynstat_eta_mean             =  -1.4137866847294E-13
(PID.TID 0000.0001) %MON dynstat_eta_sd               =   8.2297172049494E+02
(PID.TID 0000.0001) %MON dynstat_eta_del2             =   3.1299857756787E+01
(PID.TID 0000.0001) %MON dynstat_uvel_max             =   6.7181648278128E+01
(PID.TID 0000.0001) %MON dynstat_uvel_min             =  -6.6609553642481E+01
(PID.TID 0000.0001) %MON dynstat_uvel_mean            =   2.0459421963235E+00
(PID.TID 0000.0001) %MON dynstat_uvel_sd              =   1.1154961608795E+01
(PID.TID 0000.0001) %MON dynstat_uvel_del2            =   6.7704001078747E-01
(PID.TID 0000.0001) %MON dynstat_vvel_max             =   7.2034897338584E+01
(PID.TID 0000.0001) %MON dynstat_vvel_min             =  -6.8663140895878E+01
(PID.TID 0000.0001) %MON dynstat_vvel_mean            =   2.0095996090124E+00
(PID.TID 0000.0001) %MON dynstat_vvel_sd              =   1.1664652729488E+01
(PID.TID 0000.0001) %MON dynstat_vvel_del2            =   6.9965198162340E-01
(PID.TID 0000.0001) %MON dynstat_wvel_max             =   8.0689741033531E-01
(PID.TID 0000.0001) %MON dynstat_wvel_min             =  -6.7192591315941E-01
(PID.TID 0000.0001) %MON dynstat_wvel_mean            =   2.5746406700345E-18
(PID.TID 0000.0001) %MON dynstat_wvel_sd              =   6.6019688610901E-02
(PID.TID 0000.0001) %MON dynstat_wvel_del2            =   1.1203500924748E-02
(PID.TID 0000.0001) %MON dynstat_theta_max            =   5.9596848309196E+02
(PID.TID 0000.0001) %MON dynstat_theta_min            =   2.6187809233327E+02
(PID.TID 0000.0001) %MON dynstat_theta_mean           =   3.2766078826580E+02
(PID.TID 0000.0001) %MON dynstat_theta_sd             =   6.3757511051146E+01
(PID.TID 0000.0001) %MON dynstat_theta_del2           =   3.8519731727197E-01
(PID.TID 0000.0001) %MON dynstat_salt_max             =   0.0000000000000E+00
(PID.TID 0000.0001) %MON dynstat_salt_min             =   0.0000000000000E+00
(PID.TID 0000.0001) %MON dynstat_salt_mean            =   0.0000000000000E+00
(PID.TID 0000.0001) %MON dynstat_salt_sd              =   0.0000000000000E+00
(PID.TID 0000.0001) %MON dynstat_salt_del2            =   0.0000000000000E+00
(PID.TID 0000.0001) %MON advcfl_uvel_max              =   2.6902005600041E-01
(PID.TID 0000.0001) %MON advcfl_vvel_max              =   2.2637721843843E-01
(PID.TID 0000.0001) %MON advcfl_wvel_max              =   7.2620766930178E-02
(PID.TID 0000.0001) %MON advcfl_W_hf_max              =   7.1978521332550E-02
(PID.TID 0000.0001) %MON pe_b_mean                    =   2.8676216452483E+00
(PID.TID 0000.0001) %MON ke_max                       =   3.2507822666309E+03
(PID.TID 0000.0001) %MON ke_mean                      =   1.3432555604357E+02
(PID.TID 0000.0001) %MON ke_vol                       =   5.0990436378172E+19
(PID.TID 0000.0001) %MON vort_r_min                   =  -1.7840856964764E-04
(PID.TID 0000.0001) %MON vort_r_max                   =   2.2157861212316E-04
(PID.TID 0000.0001) %MON vort_a_mean                  =   8.8248786256264E-20
(PID.TID 0000.0001) %MON vort_a_sd                    =   8.8613002334799E-05
(PID.TID 0000.0001) %MON vort_p_mean                  =   8.0894669764365E-20
(PID.TID 0000.0001) %MON vort_p_sd                    =   8.8688236586654E-05
(PID.TID 0000.0001) %MON surfExpan_theta_mean         =  -1.7358878918246E-03
(PID.TID 0000.0001) %MON surfExpan_salt_mean          =   0.0000000000000E+00
(PID.TID 0000.0001) %MON surfExpan_Heat_mean          =  -2.1988619794053E-01
(PID.TID 0000.0001) %MON En_Budget_T2PE_mean          =   1.1452216529191E+00
(PID.TID 0000.0001) // =======================================================
(PID.TID 0000.0001) // End MONITOR dynamic field statistics
(PID.TID 0000.0001) // =======================================================
 cg2d: Sum(rhs),rhsMax =   6.05359673500061E-09  1.60306264714227E+04
(PID.TID 0000.0001)                    cg2d_init_res =    1.56200597781918E+03
(PID.TID 0000.0001)                       cg2d_iters =    16
(PID.TID 0000.0001)                         cg2d_res =    3.51408966784432E-11
(PID.TID 0000.0001) // =======================================================
(PID.TID 0000.0001) // Begin MONITOR dynamic field statistics
(PID.TID 0000.0001) // =======================================================
(PID.TID 0000.0001) %MON time_tsnumber                =                276485
(PID.TID 0000.0001) %MON time_secondsf                =   1.2441825000000E+08
(PID.TID 0000.0001) %MON dynstat_eta_max              =   2.5497973744488E+03
(PID.TID 0000.0001) %MON dynstat_eta_min              =  -3.5064108631928E+03
(PID.TID 0000.0001) %MON dynstat_eta_mean             =  -2.9560994317069E-13
(PID.TID 0000.0001) %MON dynstat_eta_sd               =   8.2256055051319E+02
(PID.TID 0000.0001) %MON dynstat_eta_del2             =   3.1289133161621E+01
(PID.TID 0000.0001) %MON dynstat_uvel_max             =   6.7172450079410E+01
(PID.TID 0000.0001) %MON dynstat_uvel_min             =  -6.6662390573475E+01
(PID.TID 0000.0001) %MON dynstat_uvel_mean            =   2.0452622042251E+00
(PID.TID 0000.0001) %MON dynstat_uvel_sd              =   1.1153621245748E+01
(PID.TID 0000.0001) %MON dynstat_uvel_del2            =   6.7693391428142E-01
(PID.TID 0000.0001) %MON dynstat_vvel_max             =   7.2069111220143E+01
(PID.TID 0000.0001) %MON dynstat_vvel_min             =  -6.8680624995598E+01
(PID.TID 0000.0001) %MON dynstat_vvel_mean            =   2.0086654653857E+00
(PID.TID 0000.0001) %MON dynstat_vvel_sd              =   1.1663217780423E+01
(PID.TID 0000.0001) %MON dynstat_vvel_del2            =   6.9946781144481E-01
(PID.TID 0000.0001) %MON dynstat_wvel_max             =   8.0489466660317E-01
(PID.TID 0000.0001) %MON dynstat_wvel_min             =  -6.7340348131848E-01
(PID.TID 0000.0001) %MON dynstat_wvel_mean            =  -4.8274512563147E-19
(PID.TID 0000.0001) %MON dynstat_wvel_sd              =   6.6017109592887E-02
(PID.TID 0000.0001) %MON dynstat_wvel_del2            =   1.1205088524077E-02
(PID.TID 0000.0001) %MON dynstat_theta_max            =   5.9595181893624E+02
(PID.TID 0000.0001) %MON dynstat_theta_min            =   2.6188509620099E+02
(PID.TID 0000.0001) %MON dynstat_theta_mean           =   3.2766080786909E+02
(PID.TID 0000.0001) %MON dynstat_theta_sd             =   6.3757498373919E+01
(PID.TID 0000.0001) %MON dynstat_theta_del2           =   3.8516002230733E-01
(PID.TID 0000.0001) %MON dynstat_salt_max             =   0.0000000000000E+00
(PID.TID 0000.0001) %MON dynstat_salt_min             =   0.0000000000000E+00
(PID.TID 0000.0001) %MON dynstat_salt_mean            =   0.0000000000000E+00
(PID.TID 0000.0001) %MON dynstat_salt_sd              =   0.0000000000000E+00
(PID.TID 0000.0001) %MON dynstat_salt_del2            =   0.0000000000000E+00
(PID.TID 0000.0001) %MON advcfl_uvel_max              =   2.6923345172756E-01
(PID.TID 0000.0001) %MON advcfl_vvel_max              =   2.2627743106279E-01
(PID.TID 0000.0001) %MON advcfl_wvel_max              =   7.2440519994286E-02
(PID.TID 0000.0001) %MON advcfl_W_hf_max              =   7.1799702912838E-02
(PID.TID 0000.0001) %MON pe_b_mean                    =   2.8647569407476E+00
(PID.TID 0000.0001) %MON ke_max                       =   3.2476902254197E+03
(PID.TID 0000.0001) %MON ke_mean                      =   1.3429059760758E+02
(PID.TID 0000.0001) %MON ke_vol                       =   5.0990436378172E+19
(PID.TID 0000.0001) %MON vort_r_min                   =  -1.7848152687588E-04
(PID.TID 0000.0001) %MON vort_r_max                   =   2.2155346329458E-04
(PID.TID 0000.0001) %MON vort_a_mean                  =  -2.4513551737851E-20
(PID.TID 0000.0001) %MON vort_a_sd                    =   8.8611190374417E-05
(PID.TID 0000.0001) %MON vort_p_mean                  =  -2.4513536294133E-20
(PID.TID 0000.0001) %MON vort_p_sd                    =   8.8686351136869E-05
(PID.TID 0000.0001) %MON surfExpan_theta_mean         =  -1.7474132948512E-03
(PID.TID 0000.0001) %MON surfExpan_salt_mean          =   0.0000000000000E+00
(PID.TID 0000.0001) %MON surfExpan_Heat_mean          =  -2.2108254240852E-01
(PID.TID 0000.0001) %MON En_Budget_T2PE_mean          =   1.1449535361436E+00
(PID.TID 0000.0001) // =======================================================
(PID.TID 0000.0001) // End MONITOR dynamic field statistics
(PID.TID 0000.0001) // =======================================================
 Compute Stats, Diag. #  23  ETAN      vol(  0 ): 5.099E+14  Parms: SM      M1      
 Compute Stats, Diag. #  30  UVEL      vol(  0 ): 5.099E+19  Parms: UU   031MR      
 Compute Stats, Diag. #  31  VVEL      vol(  0 ): 5.099E+19  Parms: VV   030MR      
 Compute Stats, Diag. #  32  WVEL      vol(  0 ): 4.972E+19  Parms: WM      LR      
 Compute Stats, Diag. #  26  THETA     vol(  0 ): 5.099E+19  Parms: SM      MR      
 cg2d: Sum(rhs),rhsMax =   4.88944351673126E-09  1.60307307559574E+04
(PID.TID 0000.0001)                    cg2d_init_res =    1.56746603007916E+03
(PID.TID 0000.0001)                       cg2d_iters =    16
(PID.TID 0000.0001)                         cg2d_res =    3.51477088309386E-11
(PID.TID 0000.0001) // =======================================================
(PID.TID 0000.0001) // Begin MONITOR dynamic field statistics
(PID.TID 0000.0001) // =======================================================
(PID.TID 0000.0001) %MON time_tsnumber                =                276486
(PID.TID 0000.0001) %MON time_secondsf                =   1.2441870000000E+08
(PID.TID 0000.0001) %MON dynstat_eta_max              =   2.5459691209842E+03
(PID.TID 0000.0001) %MON dynstat_eta_min              =  -3.5067447765957E+03
(PID.TID 0000.0001) %MON dynstat_eta_mean             =  -1.2852606224812E-13
(PID.TID 0000.0001) %MON dynstat_eta_sd               =   8.2214910344949E+02
(PID.TID 0000.0001) %MON dynstat_eta_del2             =   3.1279963702896E+01
(PID.TID 0000.0001) %MON dynstat_uvel_max             =   6.7162708714097E+01
(PID.TID 0000.0001) %MON dynstat_uvel_min             =  -6.6715193309164E+01
(PID.TID 0000.0001) %MON dynstat_uvel_mean            =   2.0445832226130E+00
(PID.TID 0000.0001) %MON dynstat_uvel_sd              =   1.1152289952268E+01
(PID.TID 0000.0001) %MON dynstat_uvel_del2            =   6.7682778855094E-01
(PID.TID 0000.0001) %MON dynstat_vvel_max             =   7.2101606212797E+01
(PID.TID 0000.0001) %MON dynstat_vvel_min             =  -6.8702607400105E+01
(PID.TID 0000.0001) %MON dynstat_vvel_mean            =   2.0077310345159E+00
(PID.TID 0000.0001) %MON dynstat_vvel_sd              =   1.1661777684124E+01
(PID.TID 0000.0001) %MON dynstat_vvel_del2            =   6.9928826373605E-01
(PID.TID 0000.0001) %MON dynstat_wvel_max             =   8.0277169684353E-01
(PID.TID 0000.0001) %MON dynstat_wvel_min             =  -6.7464098104581E-01
(PID.TID 0000.0001) %MON dynstat_wvel_mean            =  -4.4251636516218E-18
(PID.TID 0000.0001) %MON dynstat_wvel_sd              =   6.6014939062695E-02
(PID.TID 0000.0001) %MON dynstat_wvel_del2            =   1.1207123234186E-02
(PID.TID 0000.0001) %MON dynstat_theta_max            =   5.9593512840855E+02
(PID.TID 0000.0001) %MON dynstat_theta_min            =   2.6189280933435E+02
(PID.TID 0000.0001) %MON dynstat_theta_mean           =   3.2766082735142E+02
(PID.TID 0000.0001) %MON dynstat_theta_sd             =   6.3757485796376E+01
(PID.TID 0000.0001) %MON dynstat_theta_del2           =   3.8511575249864E-01
(PID.TID 0000.0001) %MON dynstat_salt_max             =   0.0000000000000E+00
(PID.TID 0000.0001) %MON dynstat_salt_min             =   0.0000000000000E+00
(PID.TID 0000.0001) %MON dynstat_salt_mean            =   0.0000000000000E+00
(PID.TID 0000.0001) %MON dynstat_salt_sd              =   0.0000000000000E+00
(PID.TID 0000.0001) %MON dynstat_salt_del2            =   0.0000000000000E+00
(PID.TID 0000.0001) %MON advcfl_uvel_max              =   2.6944670934805E-01
(PID.TID 0000.0001) %MON advcfl_vvel_max              =   2.2617431255003E-01
(PID.TID 0000.0001) %MON advcfl_wvel_max              =   7.2249452715918E-02
(PID.TID 0000.0001) %MON advcfl_W_hf_max              =   7.1610159376300E-02
(PID.TID 0000.0001) %MON pe_b_mean                    =   2.8618917388186E+00
(PID.TID 0000.0001) %MON ke_max                       =   3.2443088881216E+03
(PID.TID 0000.0001) %MON ke_mean                      =   1.3425568756105E+02
(PID.TID 0000.0001) %MON ke_vol                       =   5.0990436378172E+19
(PID.TID 0000.0001) %MON vort_r_min                   =  -1.7851000522956E-04
(PID.TID 0000.0001) %MON vort_r_max                   =   2.2150550889830E-04
(PID.TID 0000.0001) %MON vort_a_mean                  =   9.8054206951405E-21
(PID.TID 0000.0001) %MON vort_a_sd                    =   8.8609377353521E-05
(PID.TID 0000.0001) %MON vort_p_mean                  =   7.3540608890599E-21
(PID.TID 0000.0001) %MON vort_p_sd                    =   8.8684464458174E-05
(PID.TID 0000.0001) %MON surfExpan_theta_mean         =  -1.7564810604704E-03
(PID.TID 0000.0001) %MON surfExpan_salt_mean          =   0.0000000000000E+00
(PID.TID 0000.0001) %MON surfExpan_Heat_mean          =  -2.2202937624935E-01
(PID.TID 0000.0001) %MON En_Budget_T2PE_mean          =   1.1446985034674E+00
(PID.TID 0000.0001) // =======================================================
(PID.TID 0000.0001) // End MONITOR dynamic field statistics
(PID.TID 0000.0001) // =======================================================
 cg2d: Sum(rhs),rhsMax =   4.19095158576965E-09  1.60303892293589E+04
(PID.TID 0000.0001)                    cg2d_init_res =    1.57280401895311E+03
(PID.TID 0000.0001)                       cg2d_iters =    16
(PID.TID 0000.0001)                         cg2d_res =    3.51549875880975E-11
(PID.TID 0000.0001) // =======================================================
(PID.TID 0000.0001) // Begin MONITOR dynamic field statistics
(PID.TID 0000.0001) // =======================================================
(PID.TID 0000.0001) %MON time_tsnumber                =                276487
(PID.TID 0000.0001) %MON time_secondsf                =   1.2441915000000E+08
(PID.TID 0000.0001) %MON dynstat_eta_max              =   2.5421173619849E+03
(PID.TID 0000.0001) %MON dynstat_eta_min              =  -3.5069905757758E+03
(PID.TID 0000.0001) %MON dynstat_eta_mean             =  -1.7351018403497E-13
(PID.TID 0000.0001) %MON dynstat_eta_sd               =   8.2173722568281E+02
(PID.TID 0000.0001) %MON dynstat_eta_del2             =   3.1270720024763E+01
(PID.TID 0000.0001) %MON dynstat_uvel_max             =   6.7152365384509E+01
(PID.TID 0000.0001) %MON dynstat_uvel_min             =  -6.6767319606322E+01
(PID.TID 0000.0001) %MON dynstat_uvel_mean            =   2.0439052367810E+00
(PID.TID 0000.0001) %MON dynstat_uvel_sd              =   1.1150967770531E+01
(PID.TID 0000.0001) %MON dynstat_uvel_del2            =   6.7672217641971E-01
(PID.TID 0000.0001) %MON dynstat_vvel_max             =   7.2132305781669E+01
(PID.TID 0000.0001) %MON dynstat_vvel_min             =  -6.8728893364397E+01
(PID.TID 0000.0001) %MON dynstat_vvel_mean            =   2.0067963282122E+00
(PID.TID 0000.0001) %MON dynstat_vvel_sd              =   1.1660332322875E+01
(PID.TID 0000.0001) %MON dynstat_vvel_del2            =   6.9911314635751E-01
(PID.TID 0000.0001) %MON dynstat_wvel_max             =   8.0052901722897E-01
(PID.TID 0000.0001) %MON dynstat_wvel_min             =  -6.7561570297307E-01
(PID.TID 0000.0001) %MON dynstat_wvel_mean            =   3.5401309212975E-18
(PID.TID 0000.0001) %MON dynstat_wvel_sd              =   6.6013183514785E-02
(PID.TID 0000.0001) %MON dynstat_wvel_del2            =   1.1209219792557E-02
(PID.TID 0000.0001) %MON dynstat_theta_max            =   5.9591841530724E+02
(PID.TID 0000.0001) %MON dynstat_theta_min            =   2.6190123145180E+02
(PID.TID 0000.0001) %MON dynstat_theta_mean           =   3.2766084671469E+02
(PID.TID 0000.0001) %MON dynstat_theta_sd             =   6.3757473317575E+01
(PID.TID 0000.0001) %MON dynstat_theta_del2           =   3.8506553949957E-01
(PID.TID 0000.0001) %MON dynstat_salt_max             =   0.0000000000000E+00
(PID.TID 0000.0001) %MON dynstat_salt_min             =   0.0000000000000E+00
(PID.TID 0000.0001) %MON dynstat_salt_mean            =   0.0000000000000E+00
(PID.TID 0000.0001) %MON dynstat_salt_sd              =   0.0000000000000E+00
(PID.TID 0000.0001) %MON dynstat_salt_del2            =   0.0000000000000E+00
(PID.TID 0000.0001) %MON advcfl_uvel_max              =   2.6965723499511E-01
(PID.TID 0000.0001) %MON advcfl_vvel_max              =   2.2606949671088E-01
(PID.TID 0000.0001) %MON advcfl_wvel_max              =   7.2047611550607E-02
(PID.TID 0000.0001) %MON advcfl_W_hf_max              =   7.1409938581416E-02
(PID.TID 0000.0001) %MON pe_b_mean                    =   2.8590249733871E+00
(PID.TID 0000.0001) %MON ke_max                       =   3.2406370217332E+03
(PID.TID 0000.0001) %MON ke_mean                      =   1.3422082498762E+02
(PID.TID 0000.0001) %MON ke_vol                       =   5.0990436378172E+19
(PID.TID 0000.0001) %MON vort_r_min                   =  -1.7849337639751E-04
(PID.TID 0000.0001) %MON vort_r_max                   =   2.2143449577204E-04
(PID.TID 0000.0001) %MON vort_a_mean                  =   1.5198402077468E-19
(PID.TID 0000.0001) %MON vort_a_sd                    =   8.8607563270631E-05
(PID.TID 0000.0001) %MON vort_p_mean                  =   1.5198392506270E-19
(PID.TID 0000.0001) %MON vort_p_sd                    =   8.8682576627196E-05
(PID.TID 0000.0001) %MON surfExpan_theta_mean         =  -1.7633823451436E-03
(PID.TID 0000.0001) %MON surfExpan_salt_mean          =   0.0000000000000E+00
(PID.TID 0000.0001) %MON surfExpan_Heat_mean          =  -2.2275555157340E-01
(PID.TID 0000.0001) %MON En_Budget_T2PE_mean          =   1.1444555515584E+00
(PID.TID 0000.0001) // =======================================================
(PID.TID 0000.0001) // End MONITOR dynamic field statistics
(PID.TID 0000.0001) // =======================================================
 cg2d: Sum(rhs),rhsMax =   4.42378222942352E-09  1.60296038871353E+04
(PID.TID 0000.0001)                    cg2d_init_res =    1.57803516206312E+03
(PID.TID 0000.0001)                       cg2d_iters =    16
(PID.TID 0000.0001)                         cg2d_res =    3.51633033542891E-11
(PID.TID 0000.0001) // =======================================================
(PID.TID 0000.0001) // Begin MONITOR dynamic field statistics
(PID.TID 0000.0001) // =======================================================
(PID.TID 0000.0001) %MON time_tsnumber                =                276488
(PID.TID 0000.0001) %MON time_secondsf                =   1.2441960000000E+08
(PID.TID 0000.0001) %MON dynstat_eta_max              =   2.5382420895384E+03
(PID.TID 0000.0001) %MON dynstat_eta_min              =  -3.5071482590327E+03
(PID.TID 0000.0001) %MON dynstat_eta_mean             =  -1.3495236536053E-13
(PID.TID 0000.0001) %MON dynstat_eta_sd               =   8.2132482009415E+02
(PID.TID 0000.0001) %MON dynstat_eta_del2             =   3.1260199466181E+01
(PID.TID 0000.0001) %MON dynstat_uvel_max             =   6.7141370368801E+01
(PID.TID 0000.0001) %MON dynstat_uvel_min             =  -6.6818119370380E+01
(PID.TID 0000.0001) %MON dynstat_uvel_mean            =   2.0432282304053E+00
(PID.TID 0000.0001) %MON dynstat_uvel_sd              =   1.1149654746964E+01
(PID.TID 0000.0001) %MON dynstat_uvel_del2            =   6.7662692441735E-01
(PID.TID 0000.0001) %MON dynstat_vvel_max             =   7.2161132670193E+01
(PID.TID 0000.0001) %MON dynstat_vvel_min             =  -6.8759206186527E+01
(PID.TID 0000.0001) %MON dynstat_vvel_mean            =   2.0058613562397E+00
(PID.TID 0000.0001) %MON dynstat_vvel_sd              =   1.1658881573310E+01
(PID.TID 0000.0001) %MON dynstat_vvel_del2            =   6.9893289541559E-01
(PID.TID 0000.0001) %MON dynstat_wvel_max             =   7.9816724599100E-01
(PID.TID 0000.0001) %MON dynstat_wvel_min             =  -6.7671071682216E-01
(PID.TID 0000.0001) %MON dynstat_wvel_mean            =  -1.4482353768944E-18
(PID.TID 0000.0001) %MON dynstat_wvel_sd              =   6.6011850268602E-02
(PID.TID 0000.0001) %MON dynstat_wvel_del2            =   1.1211559924352E-02
(PID.TID 0000.0001) %MON dynstat_theta_max            =   5.9590168294741E+02
(PID.TID 0000.0001) %MON dynstat_theta_min            =   2.6191036205874E+02
(PID.TID 0000.0001) %MON dynstat_theta_mean           =   3.2766086596137E+02
(PID.TID 0000.0001) %MON dynstat_theta_sd             =   6.3757460936222E+01
(PID.TID 0000.0001) %MON dynstat_theta_del2           =   3.8500099062314E-01
(PID.TID 0000.0001) %MON dynstat_salt_max             =   0.0000000000000E+00
(PID.TID 0000.0001) %MON dynstat_salt_min             =   0.0000000000000E+00
(PID.TID 0000.0001) %MON dynstat_salt_mean            =   0.0000000000000E+00
(PID.TID 0000.0001) %MON dynstat_salt_sd              =   0.0000000000000E+00
(PID.TID 0000.0001) %MON dynstat_salt_del2            =   0.0000000000000E+00
(PID.TID 0000.0001) %MON advcfl_uvel_max              =   2.6986240309224E-01
(PID.TID 0000.0001) %MON advcfl_vvel_max              =   2.2596471903470E-01
(PID.TID 0000.0001) %MON advcfl_wvel_max              =   7.1835052139190E-02
(PID.TID 0000.0001) %MON advcfl_W_hf_max              =   7.1199097762037E-02
(PID.TID 0000.0001) %MON pe_b_mean                    =   2.8561559734972E+00
(PID.TID 0000.0001) %MON ke_max                       =   3.2366734057439E+03
(PID.TID 0000.0001) %MON ke_mean                      =   1.3418600894560E+02
(PID.TID 0000.0001) %MON ke_vol                       =   5.0990436378172E+19
(PID.TID 0000.0001) %MON vort_r_min                   =  -1.7843102867281E-04
(PID.TID 0000.0001) %MON vort_r_max                   =   2.2134017081952E-04
(PID.TID 0000.0001) %MON vort_a_mean                  =  -7.8443365561124E-20
(PID.TID 0000.0001) %MON vort_a_sd                    =   8.8605748130821E-05
(PID.TID 0000.0001) %MON vort_p_mean                  =  -7.5991962544965E-20
(PID.TID 0000.0001) %MON vort_p_sd                    =   8.8680687721907E-05
(PID.TID 0000.0001) %MON surfExpan_theta_mean         =  -1.7684877590520E-03
(PID.TID 0000.0001) %MON surfExpan_salt_mean          =   0.0000000000000E+00
(PID.TID 0000.0001) %MON surfExpan_Heat_mean          =  -2.2329803312757E-01
(PID.TID 0000.0001) %MON En_Budget_T2PE_mean          =   1.1442238265611E+00
(PID.TID 0000.0001) // =======================================================
(PID.TID 0000.0001) // End MONITOR dynamic field statistics
(PID.TID 0000.0001) // =======================================================
 cg2d: Sum(rhs),rhsMax =   4.42378222942352E-09  1.60283771858726E+04
(PID.TID 0000.0001)                    cg2d_init_res =    1.58317610702912E+03
(PID.TID 0000.0001)                       cg2d_iters =    16
(PID.TID 0000.0001)                         cg2d_res =    3.51730552015875E-11
(PID.TID 0000.0001) // =======================================================
(PID.TID 0000.0001) // Begin MONITOR dynamic field statistics
(PID.TID 0000.0001) // =======================================================
(PID.TID 0000.0001) %MON time_tsnumber                =                276489
(PID.TID 0000.0001) %MON time_secondsf                =   1.2442005000000E+08
(PID.TID 0000.0001) %MON dynstat_eta_max              =   2.5343433654786E+03
(PID.TID 0000.0001) %MON dynstat_eta_min              =  -3.5072180350255E+03
(PID.TID 0000.0001) %MON dynstat_eta_mean             =  -1.6708388092256E-13
(PID.TID 0000.0001) %MON dynstat_eta_sd               =   8.2091184156878E+02
(PID.TID 0000.0001) %MON dynstat_eta_del2             =   3.1248860588905E+01
(PID.TID 0000.0001) %MON dynstat_uvel_max             =   6.7129682828013E+01
(PID.TID 0000.0001) %MON dynstat_uvel_min             =  -6.6866952007283E+01
(PID.TID 0000.0001) %MON dynstat_uvel_mean            =   2.0425521854243E+00
(PID.TID 0000.0001) %MON dynstat_uvel_sd              =   1.1148350930735E+01
(PID.TID 0000.0001) %MON dynstat_uvel_del2            =   6.7652738377907E-01
(PID.TID 0000.0001) %MON dynstat_vvel_max             =   7.2188008744103E+01
(PID.TID 0000.0001) %MON dynstat_vvel_min             =  -6.8793190505563E+01
(PID.TID 0000.0001) %MON dynstat_vvel_mean            =   2.0049261275908E+00
(PID.TID 0000.0001) %MON dynstat_vvel_sd              =   1.1657425316468E+01
(PID.TID 0000.0001) %MON dynstat_vvel_del2            =   6.9874682424011E-01
(PID.TID 0000.0001) %MON dynstat_wvel_max             =   7.9568709523434E-01
(PID.TID 0000.0001) %MON dynstat_wvel_min             =  -6.7899892367975E-01
(PID.TID 0000.0001) %MON dynstat_wvel_mean            =  -1.7700654606487E-18
(PID.TID 0000.0001) %MON dynstat_wvel_sd              =   6.6010946859565E-02
(PID.TID 0000.0001) %MON dynstat_wvel_del2            =   1.1214060051039E-02
(PID.TID 0000.0001) %MON dynstat_theta_max            =   5.9588493405397E+02
(PID.TID 0000.0001) %MON dynstat_theta_min            =   2.6192020044971E+02
(PID.TID 0000.0001) %MON dynstat_theta_mean           =   3.2766088509414E+02
(PID.TID 0000.0001) %MON dynstat_theta_sd             =   6.3757448650859E+01
(PID.TID 0000.0001) %MON dynstat_theta_del2           =   3.8493117769753E-01
(PID.TID 0000.0001) %MON dynstat_salt_max             =   0.0000000000000E+00
(PID.TID 0000.0001) %MON dynstat_salt_min             =   0.0000000000000E+00
(PID.TID 0000.0001) %MON dynstat_salt_mean            =   0.0000000000000E+00
(PID.TID 0000.0001) %MON dynstat_salt_sd              =   0.0000000000000E+00
(PID.TID 0000.0001) %MON dynstat_salt_del2            =   0.0000000000000E+00
(PID.TID 0000.0001) %MON advcfl_uvel_max              =   2.7005962643328E-01
(PID.TID 0000.0001) %MON advcfl_vvel_max              =   2.2586174518046E-01
(PID.TID 0000.0001) %MON advcfl_wvel_max              =   7.1611838571091E-02
(PID.TID 0000.0001) %MON advcfl_W_hf_max              =   7.0977702468949E-02
(PID.TID 0000.0001) %MON pe_b_mean                    =   2.8532844310637E+00
(PID.TID 0000.0001) %MON ke_max                       =   3.2324167911977E+03
(PID.TID 0000.0001) %MON ke_mean                      =   1.3415123856996E+02
(PID.TID 0000.0001) %MON ke_vol                       =   5.0990436378172E+19
(PID.TID 0000.0001) %MON vort_r_min                   =  -1.7832236707897E-04
(PID.TID 0000.0001) %MON vort_r_max                   =   2.2122227895384E-04
(PID.TID 0000.0001) %MON vort_a_mean                  =  -9.8054206951405E-21
(PID.TID 0000.0001) %MON vort_a_sd                    =   8.8603931949824E-05
(PID.TID 0000.0001) %MON vort_p_mean                  =  -9.8054145240094E-21
(PID.TID 0000.0001) %MON vort_p_sd                    =   8.8678797821768E-05
(PID.TID 0000.0001) %MON surfExpan_theta_mean         =  -1.7721986488253E-03
(PID.TID 0000.0001) %MON surfExpan_salt_mean          =   0.0000000000000E+00
(PID.TID 0000.0001) %MON surfExpan_Heat_mean          =  -2.2369703637914E-01
(PID.TID 0000.0001) %MON En_Budget_T2PE_mean          =   1.1440026200997E+00
(PID.TID 0000.0001) // =======================================================
(PID.TID 0000.0001) // End MONITOR dynamic field statistics
(PID.TID 0000.0001) // =======================================================
 cg2d: Sum(rhs),rhsMax =   8.61473381519318E-09  1.60267124958505E+04
(PID.TID 0000.0001)                    cg2d_init_res =    1.58824213508511E+03
(PID.TID 0000.0001)                       cg2d_iters =    16
(PID.TID 0000.0001)                         cg2d_res =    3.51844622173177E-11
(PID.TID 0000.0001) // =======================================================
(PID.TID 0000.0001) // Begin MONITOR dynamic field statistics
(PID.TID 0000.0001) // =======================================================
(PID.TID 0000.0001) %MON time_tsnumber                =                276490
(PID.TID 0000.0001) %MON time_secondsf                =   1.2442050000000E+08
(PID.TID 0000.0001) %MON dynstat_eta_max              =   2.5304212555073E+03
(PID.TID 0000.0001) %MON dynstat_eta_min              =  -3.5072003901923E+03
(PID.TID 0000.0001) %MON dynstat_eta_mean             =  -1.4780497158534E-13
(PID.TID 0000.0001) %MON dynstat_eta_sd               =   8.2049828869089E+02
(PID.TID 0000.0001) %MON dynstat_eta_del2             =   3.1237873243611E+01
(PID.TID 0000.0001) %MON dynstat_uvel_max             =   6.7117272248348E+01
(PID.TID 0000.0001) %MON dynstat_uvel_min             =  -6.6913202218677E+01
(PID.TID 0000.0001) %MON dynstat_uvel_mean            =   2.0418770823698E+00
(PID.TID 0000.0001) %MON dynstat_uvel_sd              =   1.1147056372022E+01
(PID.TID 0000.0001) %MON dynstat_uvel_del2            =   6.7641914513479E-01
(PID.TID 0000.0001) %MON dynstat_vvel_max             =   7.2212853462555E+01
(PID.TID 0000.0001) %MON dynstat_vvel_min             =  -6.8830419899425E+01
(PID.TID 0000.0001) %MON dynstat_vvel_mean            =   2.0039906508890E+00
(PID.TID 0000.0001) %MON dynstat_vvel_sd              =   1.1655963446513E+01
(PID.TID 0000.0001) %MON dynstat_vvel_del2            =   6.9854727260379E-01
(PID.TID 0000.0001) %MON dynstat_wvel_max             =   7.9308936336509E-01
(PID.TID 0000.0001) %MON dynstat_wvel_min             =  -6.8108006919120E-01
(PID.TID 0000.0001) %MON dynstat_wvel_mean            =   4.1033335678675E-18
(PID.TID 0000.0001) %MON dynstat_wvel_sd              =   6.6010480870415E-02
(PID.TID 0000.0001) %MON dynstat_wvel_del2            =   1.1216390180273E-02
(PID.TID 0000.0001) %MON dynstat_theta_max            =   5.9586817073339E+02
(PID.TID 0000.0001) %MON dynstat_theta_min            =   2.6193074571098E+02
(PID.TID 0000.0001) %MON dynstat_theta_mean           =   3.2766090411568E+02
(PID.TID 0000.0001) %MON dynstat_theta_sd             =   6.3757436459997E+01
(PID.TID 0000.0001) %MON dynstat_theta_del2           =   3.8486270698428E-01
(PID.TID 0000.0001) %MON dynstat_salt_max             =   0.0000000000000E+00
(PID.TID 0000.0001) %MON dynstat_salt_min             =   0.0000000000000E+00
(PID.TID 0000.0001) %MON dynstat_salt_mean            =   0.0000000000000E+00
(PID.TID 0000.0001) %MON dynstat_salt_sd              =   0.0000000000000E+00
(PID.TID 0000.0001) %MON dynstat_salt_del2            =   0.0000000000000E+00
(PID.TID 0000.0001) %MON advcfl_uvel_max              =   2.7024641997533E-01
(PID.TID 0000.0001) %MON advcfl_vvel_max              =   2.2576229190578E-01
(PID.TID 0000.0001) %MON advcfl_wvel_max              =   7.1378042702858E-02
(PID.TID 0000.0001) %MON advcfl_W_hf_max              =   7.0745825758401E-02
(PID.TID 0000.0001) %MON pe_b_mean                    =   2.8504103422606E+00
(PID.TID 0000.0001) %MON ke_max                       =   3.2306782126222E+03
(PID.TID 0000.0001) %MON ke_mean                      =   1.3411651315561E+02
(PID.TID 0000.0001) %MON ke_vol                       =   5.0990436378172E+19
(PID.TID 0000.0001) %MON vort_r_min                   =  -1.7816680952577E-04
(PID.TID 0000.0001) %MON vort_r_max                   =   2.2152915870488E-04
(PID.TID 0000.0001) %MON vort_a_mean                  =  -1.7159486216496E-20
(PID.TID 0000.0001) %MON vort_a_sd                    =   8.8602114758216E-05
(PID.TID 0000.0001) %MON vort_p_mean                  =  -1.7159475421196E-20
(PID.TID 0000.0001) %MON vort_p_sd                    =   8.8676907009398E-05
(PID.TID 0000.0001) %MON surfExpan_theta_mean         =  -1.7749130481143E-03
(PID.TID 0000.0001) %MON surfExpan_salt_mean          =   0.0000000000000E+00
(PID.TID 0000.0001) %MON surfExpan_Heat_mean          =  -2.2399261972685E-01
(PID.TID 0000.0001) %MON En_Budget_T2PE_mean          =   1.1437913575639E+00
(PID.TID 0000.0001) // =======================================================
(PID.TID 0000.0001) // End MONITOR dynamic field statistics
(PID.TID 0000.0001) // =======================================================
 cg2d: Sum(rhs),rhsMax =   5.82076609134674E-09  1.60335066579442E+04
(PID.TID 0000.0001)                    cg2d_init_res =    1.59324674992353E+03
(PID.TID 0000.0001)                       cg2d_iters =    16
(PID.TID 0000.0001)                         cg2d_res =    3.51975765558141E-11
(PID.TID 0000.0001) // =======================================================
(PID.TID 0000.0001) // Begin MONITOR dynamic field statistics
(PID.TID 0000.0001) // =======================================================
(PID.TID 0000.0001) %MON time_tsnumber                =                276491
(PID.TID 0000.0001) %MON time_secondsf                =   1.2442095000000E+08
(PID.TID 0000.0001) %MON dynstat_eta_max              =   2.5264757874365E+03
(PID.TID 0000.0001) %MON dynstat_eta_min              =  -3.5070961609540E+03
(PID.TID 0000.0001) %MON dynstat_eta_mean             =  -2.1206800270941E-13
(PID.TID 0000.0001) %MON dynstat_eta_sd               =   8.2008419379084E+02
(PID.TID 0000.0001) %MON dynstat_eta_del2             =   3.1227471787838E+01
(PID.TID 0000.0001) %MON dynstat_uvel_max             =   6.7104117651804E+01
(PID.TID 0000.0001) %MON dynstat_uvel_min             =  -6.6956292643697E+01
(PID.TID 0000.0001) %MON dynstat_uvel_mean            =   2.0412029010906E+00
(PID.TID 0000.0001) %MON dynstat_uvel_sd              =   1.1145771120814E+01
(PID.TID 0000.0001) %MON dynstat_uvel_del2            =   6.7630507647213E-01
(PID.TID 0000.0001) %MON dynstat_vvel_max             =   7.2235583614110E+01
(PID.TID 0000.0001) %MON dynstat_vvel_min             =  -6.8870406342568E+01
(PID.TID 0000.0001) %MON dynstat_vvel_mean            =   2.0030549338741E+00
(PID.TID 0000.0001) %MON dynstat_vvel_sd              =   1.1654495875448E+01
(PID.TID 0000.0001) %MON dynstat_vvel_del2            =   6.9832994404199E-01
(PID.TID 0000.0001) %MON dynstat_wvel_max             =   7.9037492885093E-01
(PID.TID 0000.0001) %MON dynstat_wvel_min             =  -6.8293971206802E-01
(PID.TID 0000.0001) %MON dynstat_wvel_mean            =  -1.3677778559558E-18
(PID.TID 0000.0001) %MON dynstat_wvel_sd              =   6.6010459733487E-02
(PID.TID 0000.0001) %MON dynstat_wvel_del2            =   1.1218815396735E-02
(PID.TID 0000.0001) %MON dynstat_theta_max            =   5.9585139452045E+02
(PID.TID 0000.0001) %MON dynstat_theta_min            =   2.6194199672315E+02
(PID.TID 0000.0001) %MON dynstat_theta_mean           =   3.2766092302845E+02
(PID.TID 0000.0001) %MON dynstat_theta_sd             =   6.3757424362201E+01
(PID.TID 0000.0001) %MON dynstat_theta_del2           =   3.8479200712205E-01
(PID.TID 0000.0001) %MON dynstat_salt_max             =   0.0000000000000E+00
(PID.TID 0000.0001) %MON dynstat_salt_min             =   0.0000000000000E+00
(PID.TID 0000.0001) %MON dynstat_salt_mean            =   0.0000000000000E+00
(PID.TID 0000.0001) %MON dynstat_salt_sd              =   0.0000000000000E+00
(PID.TID 0000.0001) %MON dynstat_salt_del2            =   0.0000000000000E+00
(PID.TID 0000.0001) %MON advcfl_uvel_max              =   2.7042045189595E-01
(PID.TID 0000.0001) %MON advcfl_vvel_max              =   2.2566795210880E-01
(PID.TID 0000.0001) %MON advcfl_wvel_max              =   7.1133743596584E-02
(PID.TID 0000.0001) %MON advcfl_W_hf_max              =   7.0503547604269E-02
(PID.TID 0000.0001) %MON pe_b_mean                    =   2.8475339376398E+00
(PID.TID 0000.0001) %MON ke_max                       =   3.2294770919650E+03
(PID.TID 0000.0001) %MON ke_mean                      =   1.3408183219928E+02
(PID.TID 0000.0001) %MON ke_vol                       =   5.0990436378172E+19
(PID.TID 0000.0001) %MON vort_r_min                   =  -1.7796379964519E-04
(PID.TID 0000.0001) %MON vort_r_max                   =   2.2227984766018E-04
(PID.TID 0000.0001) %MON vort_a_mean                  =  -2.9416262085421E-20
(PID.TID 0000.0001) %MON vort_a_sd                    =   8.8600296598843E-05
(PID.TID 0000.0001) %MON vort_p_mean                  =  -2.6964889954982E-20
(PID.TID 0000.0001) %MON vort_p_sd                    =   8.8675015366487E-05
(PID.TID 0000.0001) %MON surfExpan_theta_mean         =  -1.7770035536691E-03
(PID.TID 0000.0001) %MON surfExpan_salt_mean          =   0.0000000000000E+00
(PID.TID 0000.0001) %MON surfExpan_Heat_mean          =  -2.2422245711469E-01
(PID.TID 0000.0001) %MON En_Budget_T2PE_mean          =   1.1435895808758E+00
(PID.TID 0000.0001) // =======================================================
(PID.TID 0000.0001) // End MONITOR dynamic field statistics
(PID.TID 0000.0001) // =======================================================
 cg2d: Sum(rhs),rhsMax =   3.95812094211578E-09  1.60613825536677E+04
(PID.TID 0000.0001)                    cg2d_init_res =    1.59820182287129E+03
(PID.TID 0000.0001)                       cg2d_iters =    16
(PID.TID 0000.0001)                         cg2d_res =    3.52123220934176E-11
(PID.TID 0000.0001) // =======================================================
(PID.TID 0000.0001) // Begin MONITOR dynamic field statistics
(PID.TID 0000.0001) // =======================================================
(PID.TID 0000.0001) %MON time_tsnumber                =                276492
(PID.TID 0000.0001) %MON time_secondsf                =   1.2442140000000E+08
(PID.TID 0000.0001) %MON dynstat_eta_max              =   2.5225069339458E+03
(PID.TID 0000.0001) %MON dynstat_eta_min              =  -3.5069065715623E+03
(PID.TID 0000.0001) %MON dynstat_eta_mean             =  -3.0846254939550E-13
(PID.TID 0000.0001) %MON dynstat_eta_sd               =   8.1966961285029E+02
(PID.TID 0000.0001) %MON dynstat_eta_del2             =   3.1218600469185E+01
(PID.TID 0000.0001) %MON dynstat_uvel_max             =   6.7090206429583E+01
(PID.TID 0000.0001) %MON dynstat_uvel_min             =  -6.6995694425074E+01
(PID.TID 0000.0001) %MON dynstat_uvel_mean            =   2.0405296212715E+00
(PID.TID 0000.0001) %MON dynstat_uvel_sd              =   1.1144495225184E+01
(PID.TID 0000.0001) %MON dynstat_uvel_del2            =   6.7618180627214E-01
(PID.TID 0000.0001) %MON dynstat_vvel_max             =   7.2256113683774E+01
(PID.TID 0000.0001) %MON dynstat_vvel_min             =  -6.8912610214262E+01
(PID.TID 0000.0001) %MON dynstat_vvel_mean            =   2.0021189845502E+00
(PID.TID 0000.0001) %MON dynstat_vvel_sd              =   1.1653022539446E+01
(PID.TID 0000.0001) %MON dynstat_vvel_del2            =   6.9811462632297E-01
(PID.TID 0000.0001) %MON dynstat_wvel_max             =   7.8754474619643E-01
(PID.TID 0000.0001) %MON dynstat_wvel_min             =  -6.8456269453853E-01
(PID.TID 0000.0001) %MON dynstat_wvel_mean            =   9.6549025126295E-19
(PID.TID 0000.0001) %MON dynstat_wvel_sd              =   6.6010890557897E-02
(PID.TID 0000.0001) %MON dynstat_wvel_del2            =   1.1221152684101E-02
(PID.TID 0000.0001) %MON dynstat_theta_max            =   5.9583460644778E+02
(PID.TID 0000.0001) %MON dynstat_theta_min            =   2.6195395216291E+02
(PID.TID 0000.0001) %MON dynstat_theta_mean           =   3.2766094183467E+02
(PID.TID 0000.0001) %MON dynstat_theta_sd             =   6.3757412356156E+01
(PID.TID 0000.0001) %MON dynstat_theta_del2           =   3.8472924911797E-01
(PID.TID 0000.0001) %MON dynstat_salt_max             =   0.0000000000000E+00
(PID.TID 0000.0001) %MON dynstat_salt_min             =   0.0000000000000E+00
(PID.TID 0000.0001) %MON dynstat_salt_mean            =   0.0000000000000E+00
(PID.TID 0000.0001) %MON dynstat_salt_sd              =   0.0000000000000E+00
(PID.TID 0000.0001) %MON dynstat_salt_del2            =   0.0000000000000E+00
(PID.TID 0000.0001) %MON advcfl_uvel_max              =   2.7057958626711E-01
(PID.TID 0000.0001) %MON advcfl_vvel_max              =   2.2558012637032E-01
(PID.TID 0000.0001) %MON advcfl_wvel_max              =   7.0879027157679E-02
(PID.TID 0000.0001) %MON advcfl_W_hf_max              =   7.0250954525068E-02
(PID.TID 0000.0001) %MON pe_b_mean                    =   2.8446556114707E+00
(PID.TID 0000.0001) %MON ke_max                       =   3.2280391571955E+03
(PID.TID 0000.0001) %MON ke_mean                      =   1.3404719545750E+02
(PID.TID 0000.0001) %MON ke_vol                       =   5.0990436378172E+19
(PID.TID 0000.0001) %MON vort_r_min                   =  -1.7771961032571E-04
(PID.TID 0000.0001) %MON vort_r_max                   =   2.2300667162698E-04
(PID.TID 0000.0001) %MON vort_a_mean                  =  -9.8054206951405E-21
(PID.TID 0000.0001) %MON vort_a_sd                    =   8.8598477527751E-05
(PID.TID 0000.0001) %MON vort_p_mean                  =  -9.8054145320556E-21
(PID.TID 0000.0001) %MON vort_p_sd                    =   8.8673122974311E-05
(PID.TID 0000.0001) %MON surfExpan_theta_mean         =  -1.7788036175909E-03
(PID.TID 0000.0001) %MON surfExpan_salt_mean          =   0.0000000000000E+00
(PID.TID 0000.0001) %MON surfExpan_Heat_mean          =  -2.2442043763296E-01
(PID.TID 0000.0001) %MON En_Budget_T2PE_mean          =   1.1433969368671E+00
(PID.TID 0000.0001) // =======================================================
(PID.TID 0000.0001) // End MONITOR dynamic field statistics
(PID.TID 0000.0001) // =======================================================
 cg2d: Sum(rhs),rhsMax =   6.75208866596222E-09  1.60889093453808E+04
(PID.TID 0000.0001)                    cg2d_init_res =    1.60311819956491E+03
(PID.TID 0000.0001)                       cg2d_iters =    16
(PID.TID 0000.0001)                         cg2d_res =    3.52285704592203E-11
(PID.TID 0000.0001) // =======================================================
(PID.TID 0000.0001) // Begin MONITOR dynamic field statistics
(PID.TID 0000.0001) // =======================================================
(PID.TID 0000.0001) %MON time_tsnumber                =                276493
(PID.TID 0000.0001) %MON time_secondsf                =   1.2442185000000E+08
(PID.TID 0000.0001) %MON dynstat_eta_max              =   2.5185146192805E+03
(PID.TID 0000.0001) %MON dynstat_eta_min              =  -3.5066332162281E+03
(PID.TID 0000.0001) %MON dynstat_eta_mean             =  -2.1849430582181E-13
(PID.TID 0000.0001) %MON dynstat_eta_sd               =   8.1925461618772E+02
(PID.TID 0000.0001) %MON dynstat_eta_del2             =   3.1210956277246E+01
(PID.TID 0000.0001) %MON dynstat_uvel_max             =   6.7075533772495E+01
(PID.TID 0000.0001) %MON dynstat_uvel_min             =  -6.7030936434122E+01
(PID.TID 0000.0001) %MON dynstat_uvel_mean            =   2.0398572223040E+00
(PID.TID 0000.0001) %MON dynstat_uvel_sd              =   1.1143228730097E+01
(PID.TID 0000.0001) %MON dynstat_uvel_del2            =   6.7606229316444E-01
(PID.TID 0000.0001) %MON dynstat_vvel_max             =   7.2274356339556E+01
(PID.TID 0000.0001) %MON dynstat_vvel_min             =  -6.8956450898077E+01
(PID.TID 0000.0001) %MON dynstat_vvel_mean            =   2.0011828108439E+00
(PID.TID 0000.0001) %MON dynstat_vvel_sd              =   1.1651543401267E+01
(PID.TID 0000.0001) %MON dynstat_vvel_del2            =   6.9789461292256E-01
(PID.TID 0000.0001) %MON dynstat_wvel_max             =   7.8459984355783E-01
(PID.TID 0000.0001) %MON dynstat_wvel_min             =  -6.8593318178412E-01
(PID.TID 0000.0001) %MON dynstat_wvel_mean            =  -3.3792158794203E-18
(PID.TID 0000.0001) %MON dynstat_wvel_sd              =   6.6011779861217E-02
(PID.TID 0000.0001) %MON dynstat_wvel_del2            =   1.1223091972568E-02
(PID.TID 0000.0001) %MON dynstat_theta_max            =   5.9581780715104E+02
(PID.TID 0000.0001) %MON dynstat_theta_min            =   2.6196661050400E+02
(PID.TID 0000.0001) %MON dynstat_theta_mean           =   3.2766096053620E+02
(PID.TID 0000.0001) %MON dynstat_theta_sd             =   6.3757400440692E+01
(PID.TID 0000.0001) %MON dynstat_theta_del2           =   3.8466684333363E-01
(PID.TID 0000.0001) %MON dynstat_salt_max             =   0.0000000000000E+00
(PID.TID 0000.0001) %MON dynstat_salt_min             =   0.0000000000000E+00
(PID.TID 0000.0001) %MON dynstat_salt_mean            =   0.0000000000000E+00
(PID.TID 0000.0001) %MON dynstat_salt_sd              =   0.0000000000000E+00
(PID.TID 0000.0001) %MON dynstat_salt_del2            =   0.0000000000000E+00
(PID.TID 0000.0001) %MON advcfl_uvel_max              =   2.7072192031274E-01
(PID.TID 0000.0001) %MON advcfl_vvel_max              =   2.2549996142516E-01
(PID.TID 0000.0001) %MON advcfl_wvel_max              =   7.0613985920204E-02
(PID.TID 0000.0001) %MON advcfl_W_hf_max              =   6.9988139329613E-02
(PID.TID 0000.0001) %MON pe_b_mean                    =   2.8417758567046E+00
(PID.TID 0000.0001) %MON ke_max                       =   3.2263630914369E+03
(PID.TID 0000.0001) %MON ke_mean                      =   1.3401260296053E+02
(PID.TID 0000.0001) %MON ke_vol                       =   5.0990436378172E+19
(PID.TID 0000.0001) %MON vort_r_min                   =  -1.7752484497099E-04
(PID.TID 0000.0001) %MON vort_r_max                   =   2.2370902577917E-04
(PID.TID 0000.0001) %MON vort_a_mean                  =   3.9221682780562E-20
(PID.TID 0000.0001) %MON vort_a_sd                    =   8.8596657614172E-05
(PID.TID 0000.0001) %MON vort_p_mean                  =   3.6770304507374E-20
(PID.TID 0000.0001) %MON vort_p_sd                    =   8.8671229914169E-05
(PID.TID 0000.0001) %MON surfExpan_theta_mean         =  -1.7806003751635E-03
(PID.TID 0000.0001) %MON surfExpan_salt_mean          =   0.0000000000000E+00
(PID.TID 0000.0001) %MON surfExpan_Heat_mean          =  -2.2461591663346E-01
(PID.TID 0000.0001) %MON En_Budget_T2PE_mean          =   1.1432131600248E+00
(PID.TID 0000.0001) // =======================================================
(PID.TID 0000.0001) // End MONITOR dynamic field statistics
(PID.TID 0000.0001) // =======================================================
 Compute Stats, Diag. #  23  ETAN      vol(  0 ): 5.099E+14  Parms: SM      M1      
 Compute Stats, Diag. #  30  UVEL      vol(  0 ): 5.099E+19  Parms: UU   031MR      
 Compute Stats, Diag. #  31  VVEL      vol(  0 ): 5.099E+19  Parms: VV   030MR      
 Compute Stats, Diag. #  32  WVEL      vol(  0 ): 4.972E+19  Parms: WM      LR      
 Compute Stats, Diag. #  26  THETA     vol(  0 ): 5.099E+19  Parms: SM      MR      
 cg2d: Sum(rhs),rhsMax =   3.02679836750031E-09  1.61160882758676E+04
(PID.TID 0000.0001)                    cg2d_init_res =    1.60800586167240E+03
(PID.TID 0000.0001)                       cg2d_iters =    16
(PID.TID 0000.0001)                         cg2d_res =    3.52462221283748E-11
(PID.TID 0000.0001) // =======================================================
(PID.TID 0000.0001) // Begin MONITOR dynamic field statistics
(PID.TID 0000.0001) // =======================================================
(PID.TID 0000.0001) %MON time_tsnumber                =                276494
(PID.TID 0000.0001) %MON time_secondsf                =   1.2442230000000E+08
(PID.TID 0000.0001) %MON dynstat_eta_max              =   2.5145228351583E+03
(PID.TID 0000.0001) %MON dynstat_eta_min              =  -3.5062779824056E+03
(PID.TID 0000.0001) %MON dynstat_eta_mean             =  -1.5423127469775E-13
(PID.TID 0000.0001) %MON dynstat_eta_sd               =   8.1883928047474E+02
(PID.TID 0000.0001) %MON dynstat_eta_del2             =   3.1204691833377E+01
(PID.TID 0000.0001) %MON dynstat_uvel_max             =   6.7060101657923E+01
(PID.TID 0000.0001) %MON dynstat_uvel_min             =  -6.7061613237752E+01
(PID.TID 0000.0001) %MON dynstat_uvel_mean            =   2.0391856834672E+00
(PID.TID 0000.0001) %MON dynstat_uvel_sd              =   1.1141971676012E+01
(PID.TID 0000.0001) %MON dynstat_uvel_del2            =   6.7593738687959E-01
(PID.TID 0000.0001) %MON dynstat_vvel_max             =   7.2290225590240E+01
(PID.TID 0000.0001) %MON dynstat_vvel_min             =  -6.9001318037589E+01
(PID.TID 0000.0001) %MON dynstat_vvel_mean            =   2.0002464202360E+00
(PID.TID 0000.0001) %MON dynstat_vvel_sd              =   1.1650058451937E+01
(PID.TID 0000.0001) %MON dynstat_vvel_del2            =   6.9767296171623E-01
(PID.TID 0000.0001) %MON dynstat_wvel_max             =   7.8813084421802E-01
(PID.TID 0000.0001) %MON dynstat_wvel_min             =  -6.8703473016461E-01
(PID.TID 0000.0001) %MON dynstat_wvel_mean            =  -5.4711114238234E-18
(PID.TID 0000.0001) %MON dynstat_wvel_sd              =   6.6013133353046E-02
(PID.TID 0000.0001) %MON dynstat_wvel_del2            =   1.1225037457858E-02
(PID.TID 0000.0001) %MON dynstat_theta_max            =   5.9580099695052E+02
(PID.TID 0000.0001) %MON dynstat_theta_min            =   2.6197997001728E+02
(PID.TID 0000.0001) %MON dynstat_theta_mean           =   3.2766097913455E+02
(PID.TID 0000.0001) %MON dynstat_theta_sd             =   6.3757388614801E+01
(PID.TID 0000.0001) %MON dynstat_theta_del2           =   3.8460730838091E-01
(PID.TID 0000.0001) %MON dynstat_salt_max             =   0.0000000000000E+00
(PID.TID 0000.0001) %MON dynstat_salt_min             =   0.0000000000000E+00
(PID.TID 0000.0001) %MON dynstat_salt_mean            =   0.0000000000000E+00
(PID.TID 0000.0001) %MON dynstat_salt_sd              =   0.0000000000000E+00
(PID.TID 0000.0001) %MON dynstat_salt_del2            =   0.0000000000000E+00
(PID.TID 0000.0001) %MON advcfl_uvel_max              =   2.7084581658557E-01
(PID.TID 0000.0001) %MON advcfl_vvel_max              =   2.2542829724764E-01
(PID.TID 0000.0001) %MON advcfl_wvel_max              =   7.0931775979621E-02
(PID.TID 0000.0001) %MON advcfl_W_hf_max              =   7.0064046543823E-02
(PID.TID 0000.0001) %MON pe_b_mean                    =   2.8388952093613E+00
(PID.TID 0000.0001) %MON ke_max                       =   3.2244476419820E+03
(PID.TID 0000.0001) %MON ke_mean                      =   1.3397805501595E+02
(PID.TID 0000.0001) %MON ke_vol                       =   5.0990436378172E+19
(PID.TID 0000.0001) %MON vort_r_min                   =  -1.7726710112612E-04
(PID.TID 0000.0001) %MON vort_r_max                   =   2.2438630648123E-04
(PID.TID 0000.0001) %MON vort_a_mean                  =  -1.0785962764655E-19
(PID.TID 0000.0001) %MON vort_a_sd                    =   8.8594836939734E-05
(PID.TID 0000.0001) %MON vort_p_mean                  =  -1.0785955992686E-19
(PID.TID 0000.0001) %MON vort_p_sd                    =   8.8669336267671E-05
(PID.TID 0000.0001) %MON surfExpan_theta_mean         =  -1.7826319960952E-03
(PID.TID 0000.0001) %MON surfExpan_salt_mean          =   0.0000000000000E+00
(PID.TID 0000.0001) %MON surfExpan_Heat_mean          =  -2.2483341375189E-01
(PID.TID 0000.0001) %MON En_Budget_T2PE_mean          =   1.1430380594741E+00
(PID.TID 0000.0001) // =======================================================
(PID.TID 0000.0001) // End MONITOR dynamic field statistics
(PID.TID 0000.0001) // =======================================================
 cg2d: Sum(rhs),rhsMax =   3.72529029846191E-09  1.61429210301904E+04
(PID.TID 0000.0001)                    cg2d_init_res =    1.61287385625064E+03
(PID.TID 0000.0001)                       cg2d_iters =    16
(PID.TID 0000.0001)                         cg2d_res =    3.52652572971161E-11
(PID.TID 0000.0001) // =======================================================
(PID.TID 0000.0001) // Begin MONITOR dynamic field statistics
(PID.TID 0000.0001) // =======================================================
(PID.TID 0000.0001) %MON time_tsnumber                =                276495
(PID.TID 0000.0001) %MON time_secondsf                =   1.2442275000000E+08
(PID.TID 0000.0001) %MON dynstat_eta_max              =   2.5112664546092E+03
(PID.TID 0000.0001) %MON dynstat_eta_min              =  -3.5058429264385E+03
(PID.TID 0000.0001) %MON dynstat_eta_mean             =  -2.3777321515903E-13
(PID.TID 0000.0001) %MON dynstat_eta_sd               =   8.1842368232020E+02
(PID.TID 0000.0001) %MON dynstat_eta_del2             =   3.1198265501645E+01
(PID.TID 0000.0001) %MON dynstat_uvel_max             =   6.7043917541394E+01
(PID.TID 0000.0001) %MON dynstat_uvel_min             =  -6.7087391520823E+01
(PID.TID 0000.0001) %MON dynstat_uvel_mean            =   2.0385149839464E+00
(PID.TID 0000.0001) %MON dynstat_uvel_sd              =   1.1140724098810E+01
(PID.TID 0000.0001) %MON dynstat_uvel_del2            =   6.7581075323816E-01
(PID.TID 0000.0001) %MON dynstat_vvel_max             =   7.2303628190957E+01
(PID.TID 0000.0001) %MON dynstat_vvel_min             =  -6.9046583386240E+01
(PID.TID 0000.0001) %MON dynstat_vvel_mean            =   1.9993098199353E+00
(PID.TID 0000.0001) %MON dynstat_vvel_sd              =   1.1648567709453E+01
(PID.TID 0000.0001) %MON dynstat_vvel_del2            =   6.9745455904082E-01
(PID.TID 0000.0001) %MON dynstat_wvel_max             =   7.9385675330687E-01
(PID.TID 0000.0001) %MON dynstat_wvel_min             =  -6.8785039569463E-01
(PID.TID 0000.0001) %MON dynstat_wvel_mean            =   9.7353600335681E-18
(PID.TID 0000.0001) %MON dynstat_wvel_sd              =   6.6014955782841E-02
(PID.TID 0000.0001) %MON dynstat_wvel_del2            =   1.1226767132041E-02
(PID.TID 0000.0001) %MON dynstat_theta_max            =   5.9578417591046E+02
(PID.TID 0000.0001) %MON dynstat_theta_min            =   2.6199402877038E+02
(PID.TID 0000.0001) %MON dynstat_theta_mean           =   3.2766099763089E+02
(PID.TID 0000.0001) %MON dynstat_theta_sd             =   6.3757376877640E+01
(PID.TID 0000.0001) %MON dynstat_theta_del2           =   3.8455464814577E-01
(PID.TID 0000.0001) %MON dynstat_salt_max             =   0.0000000000000E+00
(PID.TID 0000.0001) %MON dynstat_salt_min             =   0.0000000000000E+00
(PID.TID 0000.0001) %MON dynstat_salt_mean            =   0.0000000000000E+00
(PID.TID 0000.0001) %MON dynstat_salt_sd              =   0.0000000000000E+00
(PID.TID 0000.0001) %MON dynstat_salt_del2            =   0.0000000000000E+00
(PID.TID 0000.0001) %MON advcfl_uvel_max              =   2.7094992890544E-01
(PID.TID 0000.0001) %MON advcfl_vvel_max              =   2.2536562569272E-01
(PID.TID 0000.0001) %MON advcfl_wvel_max              =   7.1447107797619E-02
(PID.TID 0000.0001) %MON advcfl_W_hf_max              =   7.0572673641420E-02
(PID.TID 0000.0001) %MON pe_b_mean                    =   2.8360142039504E+00
(PID.TID 0000.0001) %MON ke_max                       =   3.2222916313974E+03
(PID.TID 0000.0001) %MON ke_mean                      =   1.3394355219301E+02
(PID.TID 0000.0001) %MON ke_vol                       =   5.0990436378172E+19
(PID.TID 0000.0001) %MON vort_r_min                   =  -1.7694570045791E-04
(PID.TID 0000.0001) %MON vort_r_max                   =   2.2503791053127E-04
(PID.TID 0000.0001) %MON vort_a_mean                  =  -2.4513551737851E-20
(PID.TID 0000.0001) %MON vort_a_sd                    =   8.8593015596259E-05
(PID.TID 0000.0001) %MON vort_p_mean                  =  -2.6964889992041E-20
(PID.TID 0000.0001) %MON vort_p_sd                    =   8.8667442116171E-05
(PID.TID 0000.0001) %MON surfExpan_theta_mean         =  -1.7850881365129E-03
(PID.TID 0000.0001) %MON surfExpan_salt_mean          =   0.0000000000000E+00
(PID.TID 0000.0001) %MON surfExpan_Heat_mean          =  -2.2509262091745E-01
(PID.TID 0000.0001) %MON En_Budget_T2PE_mean          =   1.1428715056400E+00
(PID.TID 0000.0001) // =======================================================
(PID.TID 0000.0001) // End MONITOR dynamic field statistics
(PID.TID 0000.0001) // =======================================================
 cg2d: Sum(rhs),rhsMax =   3.72529029846191E-09  1.61694097457509E+04
(PID.TID 0000.0001)                    cg2d_init_res =    1.61773056348975E+03
(PID.TID 0000.0001)                       cg2d_iters =    16
(PID.TID 0000.0001)                         cg2d_res =    3.52857358196297E-11
(PID.TID 0000.0001) // =======================================================
(PID.TID 0000.0001) // Begin MONITOR dynamic field statistics
(PID.TID 0000.0001) // =======================================================
(PID.TID 0000.0001) %MON time_tsnumber                =                276496
(PID.TID 0000.0001) %MON time_secondsf                =   1.2442320000000E+08
(PID.TID 0000.0001) %MON dynstat_eta_max              =   2.5079896474230E+03
(PID.TID 0000.0001) %MON dynstat_eta_min              =  -3.5053301228130E+03
(PID.TID 0000.0001) %MON dynstat_eta_mean             =  -1.8636279025978E-13
(PID.TID 0000.0001) %MON dynstat_eta_sd               =   8.1800789346256E+02
(PID.TID 0000.0001) %MON dynstat_eta_del2             =   3.1193715908106E+01
(PID.TID 0000.0001) %MON dynstat_uvel_max             =   6.7026993877372E+01
(PID.TID 0000.0001) %MON dynstat_uvel_min             =  -6.7108014856867E+01
(PID.TID 0000.0001) %MON dynstat_uvel_mean            =   2.0378451034168E+00
(PID.TID 0000.0001) %MON dynstat_uvel_sd              =   1.1139486027622E+01
(PID.TID 0000.0001) %MON dynstat_uvel_del2            =   6.7567962819154E-01
(PID.TID 0000.0001) %MON dynstat_vvel_max             =   7.2314477057092E+01
(PID.TID 0000.0001) %MON dynstat_vvel_min             =  -6.9091612801836E+01
(PID.TID 0000.0001) %MON dynstat_vvel_mean            =   1.9983730172624E+00
(PID.TID 0000.0001) %MON dynstat_vvel_sd              =   1.1647071219044E+01
(PID.TID 0000.0001) %MON dynstat_vvel_del2            =   6.9723010424204E-01
(PID.TID 0000.0001) %MON dynstat_wvel_max             =   7.9897794782480E-01
(PID.TID 0000.0001) %MON dynstat_wvel_min             =  -6.8836288236074E-01
(PID.TID 0000.0001) %MON dynstat_wvel_mean            =  -6.4366016750863E-19
(PID.TID 0000.0001) %MON dynstat_wvel_sd              =   6.6017250823829E-02
(PID.TID 0000.0001) %MON dynstat_wvel_del2            =   1.1228449902645E-02
(PID.TID 0000.0001) %MON dynstat_theta_max            =   5.9576734387087E+02
(PID.TID 0000.0001) %MON dynstat_theta_min            =   2.6200878462718E+02
(PID.TID 0000.0001) %MON dynstat_theta_mean           =   3.2766101602607E+02
(PID.TID 0000.0001) %MON dynstat_theta_sd             =   6.3757365228530E+01
(PID.TID 0000.0001) %MON dynstat_theta_del2           =   3.8450536474834E-01
(PID.TID 0000.0001) %MON dynstat_salt_max             =   0.0000000000000E+00
(PID.TID 0000.0001) %MON dynstat_salt_min             =   0.0000000000000E+00
(PID.TID 0000.0001) %MON dynstat_salt_mean            =   0.0000000000000E+00
(PID.TID 0000.0001) %MON dynstat_salt_sd              =   0.0000000000000E+00
(PID.TID 0000.0001) %MON dynstat_salt_del2            =   0.0000000000000E+00
(PID.TID 0000.0001) %MON advcfl_uvel_max              =   2.7103322162719E-01
(PID.TID 0000.0001) %MON advcfl_vvel_max              =   2.2531206183363E-01
(PID.TID 0000.0001) %MON advcfl_wvel_max              =   7.1908015304232E-02
(PID.TID 0000.0001) %MON advcfl_W_hf_max              =   7.1027576741173E-02
(PID.TID 0000.0001) %MON pe_b_mean                    =   2.8331333401687E+00
(PID.TID 0000.0001) %MON ke_max                       =   3.2198939603072E+03
(PID.TID 0000.0001) %MON ke_mean                      =   1.3390909530337E+02
(PID.TID 0000.0001) %MON ke_vol                       =   5.0990436378172E+19
(PID.TID 0000.0001) %MON vort_r_min                   =  -1.7656002740300E-04
(PID.TID 0000.0001) %MON vort_r_max                   =   2.2566323461557E-04
(PID.TID 0000.0001) %MON vort_a_mean                  =  -7.3540655213554E-21
(PID.TID 0000.0001) %MON vort_a_sd                    =   8.8591193683743E-05
(PID.TID 0000.0001) %MON vort_p_mean                  =  -2.4513536366390E-21
(PID.TID 0000.0001) %MON vort_p_sd                    =   8.8665547540697E-05
(PID.TID 0000.0001) %MON surfExpan_theta_mean         =  -1.7881127486293E-03
(PID.TID 0000.0001) %MON surfExpan_salt_mean          =   0.0000000000000E+00
(PID.TID 0000.0001) %MON surfExpan_Heat_mean          =  -2.2540864730664E-01
(PID.TID 0000.0001) %MON En_Budget_T2PE_mean          =   1.1427134194795E+00
(PID.TID 0000.0001) // =======================================================
(PID.TID 0000.0001) // End MONITOR dynamic field statistics
(PID.TID 0000.0001) // =======================================================
(PID.TID 0000.0001) %CHECKPOINT    276496 ckptA
(PID.TID 0000.0001) DIAGSTATS_CLOSE_IO: close file: dynStDiag.0000276480.txt , unit=     9
(PID.TID 0000.0001)   Seconds in section "ALL                    [THE_MODEL_MAIN]":
(PID.TID 0000.0001)           User time:  39.108056
(PID.TID 0000.0001)         System time:  0.754885018
(PID.TID 0000.0001)     Wall clock time:  40.097337
(PID.TID 0000.0001)          No. starts: 1
(PID.TID 0000.0001)           No. stops: 1
(PID.TID 0000.0001)   Seconds in section "INITIALISE_FIXED       [THE_MODEL_MAIN]":
(PID.TID 0000.0001)           User time:  0.535918974
(PID.TID 0000.0001)         System time:  0.123980999
(PID.TID 0000.0001)     Wall clock time:  0.719098091
(PID.TID 0000.0001)          No. starts: 1
(PID.TID 0000.0001)           No. stops: 1
(PID.TID 0000.0001)   Seconds in section "THE_MAIN_LOOP          [THE_MODEL_MAIN]":
(PID.TID 0000.0001)           User time:  38.2641836
(PID.TID 0000.0001)         System time:  0.406938016
(PID.TID 0000.0001)     Wall clock time:  38.841512
(PID.TID 0000.0001)          No. starts: 1
(PID.TID 0000.0001)           No. stops: 1
(PID.TID 0000.0001)   Seconds in section "INITIALISE_VARIA    [THE_MAIN_LOOP]":
(PID.TID 0000.0001)           User time:  0.617906034
(PID.TID 0000.0001)         System time:  0.133978993
(PID.TID 0000.0001)     Wall clock time:  0.752701998
(PID.TID 0000.0001)          No. starts: 1
(PID.TID 0000.0001)           No. stops: 1
(PID.TID 0000.0001)   Seconds in section "MONITOR             [THE_MAIN_LOOP]":
(PID.TID 0000.0001)           User time:  0.373942971
(PID.TID 0000.0001)         System time:  0.
(PID.TID 0000.0001)     Wall clock time:  0.374708891
(PID.TID 0000.0001)          No. starts: 1
(PID.TID 0000.0001)           No. stops: 1
(PID.TID 0000.0001)   Seconds in section "DO_THE_MODEL_IO     [THE_MAIN_LOOP]":
(PID.TID 0000.0001)           User time:  0.183972001
(PID.TID 0000.0001)         System time:  0.0989850163
(PID.TID 0000.0001)     Wall clock time:  0.282157183
(PID.TID 0000.0001)          No. starts: 1
(PID.TID 0000.0001)           No. stops: 1
(PID.TID 0000.0001)   Seconds in section "MAIN LOOP           [THE_MAIN_LOOP]":
(PID.TID 0000.0001)           User time:  37.0883626
(PID.TID 0000.0001)         System time:  0.173974007
(PID.TID 0000.0001)     Wall clock time:  37.4317582
(PID.TID 0000.0001)          No. starts: 1
(PID.TID 0000.0001)           No. stops: 1
(PID.TID 0000.0001)   Seconds in section "FORWARD_STEP        [THE_MAIN_LOOP]":
(PID.TID 0000.0001)           User time:  37.0873631
(PID.TID 0000.0001)         System time:  0.173974007
(PID.TID 0000.0001)     Wall clock time:  37.4311485
(PID.TID 0000.0001)          No. starts: 16
(PID.TID 0000.0001)           No. stops: 16
(PID.TID 0000.0001)   Seconds in section "DO_STATEVARS_DIAGS  [FORWARD_STEP]":
(PID.TID 0000.0001)           User time:  1.54377067
(PID.TID 0000.0001)         System time:  0.00699800253
(PID.TID 0000.0001)     Wall clock time:  1.55239868
(PID.TID 0000.0001)          No. starts: 32
(PID.TID 0000.0001)           No. stops: 32
(PID.TID 0000.0001)   Seconds in section "EXTERNAL_FIELDS_LOAD[FORWARD_STEP]":
(PID.TID 0000.0001)           User time:  0.
(PID.TID 0000.0001)         System time:  0.
(PID.TID 0000.0001)     Wall clock time:  0.000546455383
(PID.TID 0000.0001)          No. starts: 16
(PID.TID 0000.0001)           No. stops: 16
(PID.TID 0000.0001)   Seconds in section "DO_ATMOSPHERIC_PHYS [FORWARD_STEP]":
(PID.TID 0000.0001)           User time:  0.
(PID.TID 0000.0001)         System time:  0.
(PID.TID 0000.0001)     Wall clock time:  0.000536203384
(PID.TID 0000.0001)          No. starts: 16
(PID.TID 0000.0001)           No. stops: 16
(PID.TID 0000.0001)   Seconds in section "DO_OCEANIC_PHYS     [FORWARD_STEP]":
(PID.TID 0000.0001)           User time:  0.118981481
(PID.TID 0000.0001)         System time:  0.00100001693
(PID.TID 0000.0001)     Wall clock time:  0.121132612
(PID.TID 0000.0001)          No. starts: 16
(PID.TID 0000.0001)           No. stops: 16
(PID.TID 0000.0001)   Seconds in section "DYNAMICS            [FORWARD_STEP]":
(PID.TID 0000.0001)           User time:  9.04762924
(PID.TID 0000.0001)         System time:  0.00699898601
(PID.TID 0000.0001)     Wall clock time:  9.06510401
(PID.TID 0000.0001)          No. starts: 16
(PID.TID 0000.0001)           No. stops: 16
(PID.TID 0000.0001)   Seconds in section "UPDATE_R_STAR      [FORWARD_STEP]":
(PID.TID 0000.0001)           User time:  0.858868837
(PID.TID 0000.0001)         System time:  0.
(PID.TID 0000.0001)     Wall clock time:  0.856747866
(PID.TID 0000.0001)          No. starts: 16
(PID.TID 0000.0001)           No. stops: 16
(PID.TID 0000.0001)   Seconds in section "UPDATE_CG2D        [FORWARD_STEP]":
(PID.TID 0000.0001)           User time:  0.299957037
(PID.TID 0000.0001)         System time:  0.
(PID.TID 0000.0001)     Wall clock time:  0.300442457
(PID.TID 0000.0001)          No. starts: 16
(PID.TID 0000.0001)           No. stops: 16
(PID.TID 0000.0001)   Seconds in section "SOLVE_FOR_PRESSURE  [FORWARD_STEP]":
(PID.TID 0000.0001)           User time:  1.50076723
(PID.TID 0000.0001)         System time:  0.00100001693
(PID.TID 0000.0001)     Wall clock time:  1.50586295
(PID.TID 0000.0001)          No. starts: 16
(PID.TID 0000.0001)           No. stops: 16
(PID.TID 0000.0001)   Seconds in section "UV_CORRECTION_STEP  [FORWARD_STEP]":
(PID.TID 0000.0001)           User time:  10.9743366
(PID.TID 0000.0001)         System time:  0.0159979761
(PID.TID 0000.0001)     Wall clock time:  10.9923384
(PID.TID 0000.0001)          No. starts: 16
(PID.TID 0000.0001)           No. stops: 16
(PID.TID 0000.0001)   Seconds in section "UPDATE_ETAH        [FORWARD_STEP]":
(PID.TID 0000.0001)           User time:  0.00399827957
(PID.TID 0000.0001)         System time:  0.
(PID.TID 0000.0001)     Wall clock time:  0.00650191307
(PID.TID 0000.0001)          No. starts: 16
(PID.TID 0000.0001)           No. stops: 16
(PID.TID 0000.0001)   Seconds in section "CALC_R_STAR       [FORWARD_STEP]":
(PID.TID 0000.0001)           User time:  0.112981796
(PID.TID 0000.0001)         System time:  0.
(PID.TID 0000.0001)     Wall clock time:  0.111154318
(PID.TID 0000.0001)          No. starts: 16
(PID.TID 0000.0001)           No. stops: 16
(PID.TID 0000.0001)   Seconds in section "BLOCKING_EXCHANGES  [FORWARD_STEP]":
(PID.TID 0000.0001)           User time:  0.888868332
(PID.TID 0000.0001)         System time:  0.00100001693
(PID.TID 0000.0001)     Wall clock time:  0.889368296
(PID.TID 0000.0001)          No. starts: 32
(PID.TID 0000.0001)           No. stops: 32
(PID.TID 0000.0001)   Seconds in section "THERMODYNAMICS      [FORWARD_STEP]":
(PID.TID 0000.0001)           User time:  5.36618328
(PID.TID 0000.0001)         System time:  0.0029990077
(PID.TID 0000.0001)     Wall clock time:  5.37208366
(PID.TID 0000.0001)          No. starts: 16
(PID.TID 0000.0001)           No. stops: 16
(PID.TID 0000.0001)   Seconds in section "TS_CORRECTION_STEP  [FORWARD_STEP]":
(PID.TID 0000.0001)           User time:  0.096984148
(PID.TID 0000.0001)         System time:  0.
(PID.TID 0000.0001)     Wall clock time:  0.0954575539
(PID.TID 0000.0001)          No. starts: 16
(PID.TID 0000.0001)           No. stops: 16
(PID.TID 0000.0001)   Seconds in section "DO_STATEVARS_TAVE   [FORWARD_STEP]":
(PID.TID 0000.0001)           User time:  0.
(PID.TID 0000.0001)         System time:  0.
(PID.TID 0000.0001)     Wall clock time:  0.000559091568
(PID.TID 0000.0001)          No. starts: 16
(PID.TID 0000.0001)           No. stops: 16
(PID.TID 0000.0001)   Seconds in section "MONITOR             [FORWARD_STEP]":
(PID.TID 0000.0001)           User time:  6.06107163
(PID.TID 0000.0001)         System time:  0.00299999118
(PID.TID 0000.0001)     Wall clock time:  6.20310402
(PID.TID 0000.0001)          No. starts: 16
(PID.TID 0000.0001)           No. stops: 16
(PID.TID 0000.0001)   Seconds in section "DO_THE_MODEL_IO     [FORWARD_STEP]":
(PID.TID 0000.0001)           User time:  0.208971977
(PID.TID 0000.0001)         System time:  0.133980006
(PID.TID 0000.0001)     Wall clock time:  0.345119238
(PID.TID 0000.0001)          No. starts: 16
(PID.TID 0000.0001)           No. stops: 16
(PID.TID 0000.0001)   Seconds in section "WRITE_CHECKPOINT    [FORWARD_STEP]":
(PID.TID 0000.0001)           User time:  0.
(PID.TID 0000.0001)         System time:  0.
(PID.TID 0000.0001)     Wall clock time:  0.0005838871
(PID.TID 0000.0001)          No. starts: 16
(PID.TID 0000.0001)           No. stops: 16
(PID.TID 0000.0001)   Seconds in section "WRITE_CHECKPOINT       [THE_MODEL_MAIN]":
(PID.TID 0000.0001)           User time:  0.30695343
(PID.TID 0000.0001)         System time:  0.223966002
(PID.TID 0000.0001)     Wall clock time:  0.536543846
(PID.TID 0000.0001)          No. starts: 1
(PID.TID 0000.0001)           No. stops: 1
(PID.TID 0000.0001) // ======================================================
(PID.TID 0000.0001) // Tile <-> Tile communication statistics
(PID.TID 0000.0001) // ======================================================
(PID.TID 0000.0001) // o Tile number: 000001
(PID.TID 0000.0001) //         No. X exchanges =              0
(PID.TID 0000.0001) //            Max. X spins =              0
(PID.TID 0000.0001) //            Min. X spins =     1000000000
(PID.TID 0000.0001) //          Total. X spins =              0
(PID.TID 0000.0001) //            Avg. X spins =       0.00E+00
(PID.TID 0000.0001) //         No. Y exchanges =              0
(PID.TID 0000.0001) //            Max. Y spins =              0
(PID.TID 0000.0001) //            Min. Y spins =     1000000000
(PID.TID 0000.0001) //          Total. Y spins =              0
(PID.TID 0000.0001) //            Avg. Y spins =       0.00E+00
(PID.TID 0000.0001) // o Tile number: 000002
(PID.TID 0000.0001) //         No. X exchanges =              0
(PID.TID 0000.0001) //            Max. X spins =              0
(PID.TID 0000.0001) //            Min. X spins =     1000000000
(PID.TID 0000.0001) //          Total. X spins =              0
(PID.TID 0000.0001) //            Avg. X spins =       0.00E+00
(PID.TID 0000.0001) //         No. Y exchanges =              0
(PID.TID 0000.0001) //            Max. Y spins =              0
(PID.TID 0000.0001) //            Min. Y spins =     1000000000
(PID.TID 0000.0001) //          Total. Y spins =              0
(PID.TID 0000.0001) //            Avg. Y spins =       0.00E+00
(PID.TID 0000.0001) // o Tile number: 000003
(PID.TID 0000.0001) //         No. X exchanges =              0
(PID.TID 0000.0001) //            Max. X spins =              0
(PID.TID 0000.0001) //            Min. X spins =     1000000000
(PID.TID 0000.0001) //          Total. X spins =              0
(PID.TID 0000.0001) //            Avg. X spins =       0.00E+00
(PID.TID 0000.0001) //         No. Y exchanges =              0
(PID.TID 0000.0001) //            Max. Y spins =              0
(PID.TID 0000.0001) //            Min. Y spins =     1000000000
(PID.TID 0000.0001) //          Total. Y spins =              0
(PID.TID 0000.0001) //            Avg. Y spins =       0.00E+00
(PID.TID 0000.0001) // o Tile number: 000004
(PID.TID 0000.0001) //         No. X exchanges =              0
(PID.TID 0000.0001) //            Max. X spins =              0
(PID.TID 0000.0001) //            Min. X spins =     1000000000
(PID.TID 0000.0001) //          Total. X spins =              0
(PID.TID 0000.0001) //            Avg. X spins =       0.00E+00
(PID.TID 0000.0001) //         No. Y exchanges =              0
(PID.TID 0000.0001) //            Max. Y spins =              0
(PID.TID 0000.0001) //            Min. Y spins =     1000000000
(PID.TID 0000.0001) //          Total. Y spins =              0
(PID.TID 0000.0001) //            Avg. Y spins =       0.00E+00
(PID.TID 0000.0001) // o Tile number: 000005
(PID.TID 0000.0001) //         No. X exchanges =              0
(PID.TID 0000.0001) //            Max. X spins =              0
(PID.TID 0000.0001) //            Min. X spins =     1000000000
(PID.TID 0000.0001) //          Total. X spins =              0
(PID.TID 0000.0001) //            Avg. X spins =       0.00E+00
(PID.TID 0000.0001) //         No. Y exchanges =              0
(PID.TID 0000.0001) //            Max. Y spins =              0
(PID.TID 0000.0001) //            Min. Y spins =     1000000000
(PID.TID 0000.0001) //          Total. Y spins =              0
(PID.TID 0000.0001) //            Avg. Y spins =       0.00E+00
(PID.TID 0000.0001) // o Tile number: 000006
(PID.TID 0000.0001) //         No. X exchanges =              0
(PID.TID 0000.0001) //            Max. X spins =              0
(PID.TID 0000.0001) //            Min. X spins =     1000000000
(PID.TID 0000.0001) //          Total. X spins =              0
(PID.TID 0000.0001) //            Avg. X spins =       0.00E+00
(PID.TID 0000.0001) //         No. Y exchanges =              0
(PID.TID 0000.0001) //            Max. Y spins =              0
(PID.TID 0000.0001) //            Min. Y spins =     1000000000
(PID.TID 0000.0001) //          Total. Y spins =              0
(PID.TID 0000.0001) //            Avg. Y spins =       0.00E+00
(PID.TID 0000.0001) // o Thread number: 000001
(PID.TID 0000.0001) //            No. barriers =          15612
(PID.TID 0000.0001) //      Max. barrier spins =              1
(PID.TID 0000.0001) //      Min. barrier spins =              1
(PID.TID 0000.0001) //     Total barrier spins =          15612
(PID.TID 0000.0001) //      Avg. barrier spins =       1.00E+00
