(PID.TID 0000.0001) 
(PID.TID 0000.0001) // ======================================================
(PID.TID 0000.0001) //                      MITgcm UV
(PID.TID 0000.0001) //                      =========
(PID.TID 0000.0001) // ======================================================
(PID.TID 0000.0001) // execution environment starting up...
(PID.TID 0000.0001) 
(PID.TID 0000.0001) // MITgcmUV version:  checkpoint63e
(PID.TID 0000.0001) // Build user:        jmc
(PID.TID 0000.0001) // Build host:        baudelaire
(PID.TID 0000.0001) // Build date:        Mon Nov  7 15:40:27 EST 2011
(PID.TID 0000.0001) 
(PID.TID 0000.0001) // =======================================================
(PID.TID 0000.0001) // Execution Environment parameter file "eedata"
(PID.TID 0000.0001) // =======================================================
(PID.TID 0000.0001) ># Example "eedata" file
(PID.TID 0000.0001) ># Lines beginning "#" are comments
(PID.TID 0000.0001) ># nTx - No. threads per process in X
(PID.TID 0000.0001) ># nTy - No. threads per process in Y
(PID.TID 0000.0001) > &EEPARMS
(PID.TID 0000.0001) > /
(PID.TID 0000.0001) ># Note: Some systems use & as the
(PID.TID 0000.0001) ># namelist terminator. Other systems
(PID.TID 0000.0001) ># use a / character (as shown here).
(PID.TID 0000.0001) 
(PID.TID 0000.0001) // =======================================================
(PID.TID 0000.0001) // Computational Grid Specification ( see files "SIZE.h" )
(PID.TID 0000.0001) //                                  ( and "eedata"       )
(PID.TID 0000.0001) // =======================================================
(PID.TID 0000.0001)      nPx =    1 ; /* No. processes in X */
(PID.TID 0000.0001)      nPy =    1 ; /* No. processes in Y */
(PID.TID 0000.0001)      nSx =    2 ; /* No. tiles in X per process */
(PID.TID 0000.0001)      nSy =    2 ; /* No. tiles in Y per process */
(PID.TID 0000.0001)      sNx =   40 ; /* Tile size in X */
(PID.TID 0000.0001)      sNy =   21 ; /* Tile size in Y */
(PID.TID 0000.0001)      OLx =    3 ; /* Tile overlap distance in X */
(PID.TID 0000.0001)      OLy =    3 ; /* Tile overlap distance in Y */
(PID.TID 0000.0001)      nTx =    1 ; /* No. threads in X per process */
(PID.TID 0000.0001)      nTy =    1 ; /* No. threads in Y per process */
(PID.TID 0000.0001)       Nr =    8 ; /* No. levels in the vertical   */
(PID.TID 0000.0001)       Nx =   80 ; /* Total domain size in X ( = nPx*nSx*sNx ) */
(PID.TID 0000.0001)       Ny =   42 ; /* Total domain size in Y ( = nPy*nSy*sNy ) */
(PID.TID 0000.0001)   nTiles =    4 ; /* Total no. tiles per process ( = nSx*nSy ) */
(PID.TID 0000.0001)   nProcs =    1 ; /* Total no. processes ( = nPx*nPy ) */
(PID.TID 0000.0001) nThreads =    1 ; /* Total no. threads per process ( = nTx*nTy ) */
(PID.TID 0000.0001) usingMPI =    F ; /* Flag used to control whether MPI is in use */
(PID.TID 0000.0001)                   /*  note: To execute a program with MPI calls */
(PID.TID 0000.0001)                   /*  it must be launched appropriately e.g     */
(PID.TID 0000.0001)                   /*  "mpirun -np 64 ......"                    */
(PID.TID 0000.0001) useCoupler=    F ;/* Flag used to control communications with   */
(PID.TID 0000.0001)                   /*  other model components, through a coupler */
(PID.TID 0000.0001) debugMode =    F ; /* print debug msg. (sequence of S/R calls)  */
(PID.TID 0000.0001) printMapIncludesZeros=    F ; /* print zeros in Std.Output maps */
(PID.TID 0000.0001) maxLengthPrt1D=   65 /* maxLength of 1D array printed to StdOut */
(PID.TID 0000.0001) 
(PID.TID 0000.0001) // ======================================================
(PID.TID 0000.0001) // Mapping of tiles to threads
(PID.TID 0000.0001) // ======================================================
(PID.TID 0000.0001) // -o- Thread   1, tiles (   1:   2,   1:   2)
(PID.TID 0000.0001) 
(PID.TID 0000.0001) // ======================================================
(PID.TID 0000.0001) // Tile <-> Tile connectvity table
(PID.TID 0000.0001) // ======================================================
(PID.TID 0000.0001) // Tile number: 000001 (process no. = 000001)
(PID.TID 0000.0001) //        WEST: Tile = 000002, Process = 000001, Comm = put
(PID.TID 0000.0001) //                bi = 000002, bj = 000001
(PID.TID 0000.0001) //        EAST: Tile = 000002, Process = 000001, Comm = put
(PID.TID 0000.0001) //                bi = 000002, bj = 000001
(PID.TID 0000.0001) //       SOUTH: Tile = 000003, Process = 000001, Comm = put
(PID.TID 0000.0001) //                bi = 000001, bj = 000002
(PID.TID 0000.0001) //       NORTH: Tile = 000003, Process = 000001, Comm = put
(PID.TID 0000.0001) //                bi = 000001, bj = 000002
(PID.TID 0000.0001) // Tile number: 000002 (process no. = 000001)
(PID.TID 0000.0001) //        WEST: Tile = 000001, Process = 000001, Comm = put
(PID.TID 0000.0001) //                bi = 000001, bj = 000001
(PID.TID 0000.0001) //        EAST: Tile = 000001, Process = 000001, Comm = put
(PID.TID 0000.0001) //                bi = 000001, bj = 000001
(PID.TID 0000.0001) //       SOUTH: Tile = 000004, Process = 000001, Comm = put
(PID.TID 0000.0001) //                bi = 000002, bj = 000002
(PID.TID 0000.0001) //       NORTH: Tile = 000004, Process = 000001, Comm = put
(PID.TID 0000.0001) //                bi = 000002, bj = 000002
(PID.TID 0000.0001) // Tile number: 000003 (process no. = 000001)
(PID.TID 0000.0001) //        WEST: Tile = 000004, Process = 000001, Comm = put
(PID.TID 0000.0001) //                bi = 000002, bj = 000002
(PID.TID 0000.0001) //        EAST: Tile = 000004, Process = 000001, Comm = put
(PID.TID 0000.0001) //                bi = 000002, bj = 000002
(PID.TID 0000.0001) //       SOUTH: Tile = 000001, Process = 000001, Comm = put
(PID.TID 0000.0001) //                bi = 000001, bj = 000001
(PID.TID 0000.0001) //       NORTH: Tile = 000001, Process = 000001, Comm = put
(PID.TID 0000.0001) //                bi = 000001, bj = 000001
(PID.TID 0000.0001) // Tile number: 000004 (process no. = 000001)
(PID.TID 0000.0001) //        WEST: Tile = 000003, Process = 000001, Comm = put
(PID.TID 0000.0001) //                bi = 000001, bj = 000002
(PID.TID 0000.0001) //        EAST: Tile = 000003, Process = 000001, Comm = put
(PID.TID 0000.0001) //                bi = 000001, bj = 000002
(PID.TID 0000.0001) //       SOUTH: Tile = 000002, Process = 000001, Comm = put
(PID.TID 0000.0001) //                bi = 000002, bj = 000001
(PID.TID 0000.0001) //       NORTH: Tile = 000002, Process = 000001, Comm = put
(PID.TID 0000.0001) //                bi = 000002, bj = 000001
(PID.TID 0000.0001) 
(PID.TID 0000.0001)  INI_PARMS: opening model parameter file "data"
(PID.TID 0000.0001)  OPEN_COPY_DATA_FILE: opening file data
(PID.TID 0000.0001) // =======================================================
(PID.TID 0000.0001) // Parameter file "data"
(PID.TID 0000.0001) // =======================================================
(PID.TID 0000.0001) ># ====================
(PID.TID 0000.0001) ># | Model parameters |
(PID.TID 0000.0001) ># ====================
(PID.TID 0000.0001) >#
(PID.TID 0000.0001) ># Continuous equation parameters
(PID.TID 0000.0001) > &PARM01
(PID.TID 0000.0001) > tRef= 0.696834, 0.497738, 0.298643, 0.0995477, -0.0995477, -0.298643, -0.497738, -0.696834,
(PID.TID 0000.0001) > sRef= 8*35.,
(PID.TID 0000.0001) > viscAr=1.E-3,
(PID.TID 0000.0001) > viscAh=1.E3,
(PID.TID 0000.0001) >#- put small value (<< stab.limit ~ 3.e10) only to test biharmonic-viscosity
(PID.TID 0000.0001) > viscA4=1.E8,
(PID.TID 0000.0001) > no_slip_sides=.FALSE.,
(PID.TID 0000.0001) > no_slip_bottom=.FALSE.,
(PID.TID 0000.0001) > diffKhT=1.E3,
(PID.TID 0000.0001) > diffKrT=1.E-5,
(PID.TID 0000.0001) > diffKhS=1.E3,
(PID.TID 0000.0001) > diffKrS=1.E-5,
(PID.TID 0000.0001) > saltAdvScheme=4,
(PID.TID 0000.0001) > eosType='LINEAR',
(PID.TID 0000.0001) > tAlpha=2.E-4,
(PID.TID 0000.0001) > sBeta =0.E-4,
(PID.TID 0000.0001) > gravity=9.81,
(PID.TID 0000.0001) > f0=1.e-4,
(PID.TID 0000.0001) > beta=0.E-11,
(PID.TID 0000.0001) > vectorInvariantMomentum=.TRUE.,
(PID.TID 0000.0001) > selectVortScheme=3,
(PID.TID 0000.0001) > selectKEscheme=2,
(PID.TID 0000.0001) >#nonHydrostatic=.TRUE.,
(PID.TID 0000.0001) > rigidLid=.FALSE.,
(PID.TID 0000.0001) > implicitFreeSurface=.TRUE.,
(PID.TID 0000.0001) > exactConserv=.TRUE.,
(PID.TID 0000.0001) > select_rStar=2,
(PID.TID 0000.0001) > nonlinFreeSurf=4,
(PID.TID 0000.0001) > hFacInf=0.2,
(PID.TID 0000.0001) > hFacSup=2.0,
(PID.TID 0000.0001) > hFacMin=0.2,
(PID.TID 0000.0001) > readBinaryPrec=64,
(PID.TID 0000.0001) >#- not safe to use globalFiles in multi-processors runs
(PID.TID 0000.0001) >#globalFiles=.TRUE.,
(PID.TID 0000.0001) >#useSingleCpuIO=.TRUE.,
(PID.TID 0000.0001) > /
(PID.TID 0000.0001) >
(PID.TID 0000.0001) ># Elliptic solver parameters
(PID.TID 0000.0001) > &PARM02
(PID.TID 0000.0001) > cg2dMaxIters=1000,
(PID.TID 0000.0001) > cg2dTargetResidual=1.E-13,
(PID.TID 0000.0001) > cg3dMaxIters=400,
(PID.TID 0000.0001) > cg3dTargetResidual=1.E-13,
(PID.TID 0000.0001) > /
(PID.TID 0000.0001) >
(PID.TID 0000.0001) ># Time stepping parameters
(PID.TID 0000.0001) > &PARM03
(PID.TID 0000.0001) > nIter0=0,
(PID.TID 0000.0001) > nTimeSteps=10,
(PID.TID 0000.0001) > baseTime=10800.,
(PID.TID 0000.0001) > deltaT=600.0,
(PID.TID 0000.0001) > abEps=0.1,
(PID.TID 0000.0001) > momDissip_In_AB=.FALSE.,
(PID.TID 0000.0001) > pChkptFreq=0.0,
(PID.TID 0000.0001) > chkptFreq=0.0,
(PID.TID 0000.0001) > dumpFreq=10800.0,
(PID.TID 0000.0001) > monitorSelect=2,
(PID.TID 0000.0001) > monitorFreq=1.,
(PID.TID 0000.0001) ># for time dependent open boundary conditions, activate the following 3 lines:
(PID.TID 0000.0001) > periodicExternalForcing=.TRUE.,
(PID.TID 0000.0001) > externForcingPeriod=21600.,
(PID.TID 0000.0001) > externForcingCycle =43200.,
(PID.TID 0000.0001) > /
(PID.TID 0000.0001) >
(PID.TID 0000.0001) ># Gridding parameters
(PID.TID 0000.0001) > &PARM04
(PID.TID 0000.0001) > usingCartesianGrid=.TRUE.,
(PID.TID 0000.0001) > delX=80*5.e3,
(PID.TID 0000.0001) > delY=42*5.e3,
(PID.TID 0000.0001) > delR= 8*562.5,
(PID.TID 0000.0001) > /
(PID.TID 0000.0001) >
(PID.TID 0000.0001) ># Input datasets
(PID.TID 0000.0001) > &PARM05
(PID.TID 0000.0001) > bathyFile='topog.bump',
(PID.TID 0000.0001) > /
(PID.TID 0000.0001) 
(PID.TID 0000.0001)  INI_PARMS ; starts to read PARM01
(PID.TID 0000.0001)  INI_PARMS ; read PARM01 : OK
(PID.TID 0000.0001)  INI_PARMS ; starts to read PARM02
(PID.TID 0000.0001)  INI_PARMS ; read PARM02 : OK
(PID.TID 0000.0001)  INI_PARMS ; starts to read PARM03
(PID.TID 0000.0001)  INI_PARMS ; read PARM03 : OK
(PID.TID 0000.0001)  INI_PARMS ; starts to read PARM04
(PID.TID 0000.0001)  INI_PARMS ; read PARM04 : OK
(PID.TID 0000.0001)  INI_PARMS ; starts to read PARM05
(PID.TID 0000.0001)  INI_PARMS ; read PARM05 : OK
(PID.TID 0000.0001)  INI_PARMS: finished reading file "data"
(PID.TID 0000.0001)  PACKAGES_BOOT: opening data.pkg
(PID.TID 0000.0001)  OPEN_COPY_DATA_FILE: opening file data.pkg
(PID.TID 0000.0001) // =======================================================
(PID.TID 0000.0001) // Parameter file "data.pkg"
(PID.TID 0000.0001) // =======================================================
(PID.TID 0000.0001) ># Packages
(PID.TID 0000.0001) > &PACKAGES
(PID.TID 0000.0001) > useOBCS=.TRUE.,
(PID.TID 0000.0001) >#usePtracers=.TRUE.,
(PID.TID 0000.0001) >#useRBCS=.TRUE.,
(PID.TID 0000.0001) >#useLayers=.TRUE.,
(PID.TID 0000.0001) > /
(PID.TID 0000.0001) 
(PID.TID 0000.0001)  PACKAGES_BOOT: finished reading data.pkg
(PID.TID 0000.0001)  OBCS_READPARMS: opening data.obcs
(PID.TID 0000.0001)  OPEN_COPY_DATA_FILE: opening file data.obcs
(PID.TID 0000.0001) // =======================================================
(PID.TID 0000.0001) // Parameter file "data.obcs"
(PID.TID 0000.0001) // =======================================================
(PID.TID 0000.0001) ># Open-boundaries
(PID.TID 0000.0001) > &OBCS_PARM01
(PID.TID 0000.0001) ># This flag turns off checking and fixing problematic topography across
(PID.TID 0000.0001) ># open boundaries.
(PID.TID 0000.0001) > OBCSfixTopo=.FALSE.,
(PID.TID 0000.0001) > OB_Jnorth= 80*-1,
(PID.TID 0000.0001) > OB_Jsouth= 80*1,
(PID.TID 0000.0001) > OB_Ieast = 42*-1,
(PID.TID 0000.0001) > OB_Iwest = 42*1,
(PID.TID 0000.0001) > useOBCSprescribe = .TRUE.,
(PID.TID 0000.0001) > OBNuFile = 'OBmeridU.bin',
(PID.TID 0000.0001) > OBSuFile = 'OBmeridU.bin',
(PID.TID 0000.0001) > OBWuFile = 'OB_WestU.bin',
(PID.TID 0000.0001) > OBEuFile = 'OB_EastU.bin',
(PID.TID 0000.0001) > OBWsFile = 'OBzonalS.bin',
(PID.TID 0000.0001) > OBWetaFile='OB_WestH.bin',
(PID.TID 0000.0001) > OBEetaFile='OB_EastH.bin',
(PID.TID 0000.0001) > OBCS_monitorFreq= 1200.,
(PID.TID 0000.0001) > OBCS_monSelect = 1,
(PID.TID 0000.0001) > /
(PID.TID 0000.0001) >
(PID.TID 0000.0001) ># Orlanski parameters
(PID.TID 0000.0001) > &OBCS_PARM02
(PID.TID 0000.0001) >#Cmax=0.45,
(PID.TID 0000.0001) >#cVelTimeScale=1000.,
(PID.TID 0000.0001) > /
(PID.TID 0000.0001) 
(PID.TID 0000.0001)  OBCS_READPARMS: finished reading data.obcs
(PID.TID 0000.0001)  Northern OB global indices : OB_Jnorth =
(PID.TID 0000.0001)    80 @       42                            /* I =  1: 80 */
(PID.TID 0000.0001)  Southern OB global indices : OB_Jsouth =
(PID.TID 0000.0001)    80 @        1                            /* I =  1: 80 */
(PID.TID 0000.0001)  Eastern  OB global indices : OB_Ieast =
(PID.TID 0000.0001)    42 @       80                            /* J =  1: 42 */
(PID.TID 0000.0001)  Western  OB global indices : OB_Iwest =
(PID.TID 0000.0001)    42 @        1                            /* J =  1: 42 */
(PID.TID 0000.0001) 
(PID.TID 0000.0001) SET_PARMS: done
(PID.TID 0000.0001) Enter INI_VERTICAL_GRID: setInterFDr=    T ; setCenterDr=    F
(PID.TID 0000.0001) %MON XC_max                       =   3.9750000000000E+05
(PID.TID 0000.0001) %MON XC_min                       =   2.5000000000000E+03
(PID.TID 0000.0001) %MON XC_mean                      =   2.0000000000000E+05
(PID.TID 0000.0001) %MON XC_sd                        =   1.1546103238755E+05
(PID.TID 0000.0001) %MON XG_max                       =   3.9500000000000E+05
(PID.TID 0000.0001) %MON XG_min                       =   0.0000000000000E+00
(PID.TID 0000.0001) %MON XG_mean                      =   1.9750000000000E+05
(PID.TID 0000.0001) %MON XG_sd                        =   1.1546103238755E+05
(PID.TID 0000.0001) %MON DXC_max                      =   5.0000000000000E+03
(PID.TID 0000.0001) %MON DXC_min                      =   5.0000000000000E+03
(PID.TID 0000.0001) %MON DXC_mean                     =   5.0000000000000E+03
(PID.TID 0000.0001) %MON DXC_sd                       =   0.0000000000000E+00
(PID.TID 0000.0001) %MON DXF_max                      =   5.0000000000000E+03
(PID.TID 0000.0001) %MON DXF_min                      =   5.0000000000000E+03
(PID.TID 0000.0001) %MON DXF_mean                     =   5.0000000000000E+03
(PID.TID 0000.0001) %MON DXF_sd                       =   0.0000000000000E+00
(PID.TID 0000.0001) %MON DXG_max                      =   5.0000000000000E+03
(PID.TID 0000.0001) %MON DXG_min                      =   5.0000000000000E+03
(PID.TID 0000.0001) %MON DXG_mean                     =   5.0000000000000E+03
(PID.TID 0000.0001) %MON DXG_sd                       =   0.0000000000000E+00
(PID.TID 0000.0001) %MON DXV_max                      =   5.0000000000000E+03
(PID.TID 0000.0001) %MON DXV_min                      =   5.0000000000000E+03
(PID.TID 0000.0001) %MON DXV_mean                     =   5.0000000000000E+03
(PID.TID 0000.0001) %MON DXV_sd                       =   0.0000000000000E+00
(PID.TID 0000.0001) %MON YC_max                       =   2.0750000000000E+05
(PID.TID 0000.0001) %MON YC_min                       =   2.5000000000000E+03
(PID.TID 0000.0001) %MON YC_mean                      =   1.0500000000000E+05
(PID.TID 0000.0001) %MON YC_sd                        =   6.0604592785256E+04
(PID.TID 0000.0001) %MON YG_max                       =   2.0500000000000E+05
(PID.TID 0000.0001) %MON YG_min                       =   0.0000000000000E+00
(PID.TID 0000.0001) %MON YG_mean                      =   1.0250000000000E+05
(PID.TID 0000.0001) %MON YG_sd                        =   6.0604592785256E+04
(PID.TID 0000.0001) %MON DYC_max                      =   5.0000000000000E+03
(PID.TID 0000.0001) %MON DYC_min                      =   5.0000000000000E+03
(PID.TID 0000.0001) %MON DYC_mean                     =   5.0000000000000E+03
(PID.TID 0000.0001) %MON DYC_sd                       =   0.0000000000000E+00
(PID.TID 0000.0001) %MON DYF_max                      =   5.0000000000000E+03
(PID.TID 0000.0001) %MON DYF_min                      =   5.0000000000000E+03
(PID.TID 0000.0001) %MON DYF_mean                     =   5.0000000000000E+03
(PID.TID 0000.0001) %MON DYF_sd                       =   0.0000000000000E+00
(PID.TID 0000.0001) %MON DYG_max                      =   5.0000000000000E+03
(PID.TID 0000.0001) %MON DYG_min                      =   5.0000000000000E+03
(PID.TID 0000.0001) %MON DYG_mean                     =   5.0000000000000E+03
(PID.TID 0000.0001) %MON DYG_sd                       =   0.0000000000000E+00
(PID.TID 0000.0001) %MON DYU_max                      =   5.0000000000000E+03
(PID.TID 0000.0001) %MON DYU_min                      =   5.0000000000000E+03
(PID.TID 0000.0001) %MON DYU_mean                     =   5.0000000000000E+03
(PID.TID 0000.0001) %MON DYU_sd                       =   0.0000000000000E+00
(PID.TID 0000.0001) %MON RA_max                       =   2.5000000000000E+07
(PID.TID 0000.0001) %MON RA_min                       =   2.5000000000000E+07
(PID.TID 0000.0001) %MON RA_mean                      =   2.5000000000000E+07
(PID.TID 0000.0001) %MON RA_sd                        =   3.7252902984619E-09
(PID.TID 0000.0001) %MON RAW_max                      =   2.5000000000000E+07
(PID.TID 0000.0001) %MON RAW_min                      =   2.5000000000000E+07
(PID.TID 0000.0001) %MON RAW_mean                     =   2.5000000000000E+07
(PID.TID 0000.0001) %MON RAW_sd                       =   3.7252902984619E-09
(PID.TID 0000.0001) %MON RAS_max                      =   2.5000000000000E+07
(PID.TID 0000.0001) %MON RAS_min                      =   2.5000000000000E+07
(PID.TID 0000.0001) %MON RAS_mean                     =   2.5000000000000E+07
(PID.TID 0000.0001) %MON RAS_sd                       =   3.7252902984619E-09
(PID.TID 0000.0001) %MON RAZ_max                      =   2.5000000000000E+07
(PID.TID 0000.0001) %MON RAZ_min                      =   2.5000000000000E+07
(PID.TID 0000.0001) %MON RAZ_mean                     =   2.5000000000000E+07
(PID.TID 0000.0001) %MON RAZ_sd                       =   3.7252902984619E-09
(PID.TID 0000.0001) %MON AngleCS_max                  =   1.0000000000000E+00
(PID.TID 0000.0001) %MON AngleCS_min                  =   1.0000000000000E+00
(PID.TID 0000.0001) %MON AngleCS_mean                 =   1.0000000000000E+00
(PID.TID 0000.0001) %MON AngleCS_sd                   =   0.0000000000000E+00
(PID.TID 0000.0001) %MON AngleSN_max                  =   0.0000000000000E+00
(PID.TID 0000.0001) %MON AngleSN_min                  =   0.0000000000000E+00
(PID.TID 0000.0001) %MON AngleSN_mean                 =   0.0000000000000E+00
(PID.TID 0000.0001) %MON AngleSN_sd                   =   0.0000000000000E+00
(PID.TID 0000.0001)  MDS_READ_FIELD: opening global file: topog.bump
(PID.TID 0000.0001) // =======================================================
(PID.TID 0000.0001) // Field Model R_low (ini_masks_etc)
(PID.TID 0000.0001) // CMIN =         -4.500000000000000E+03
(PID.TID 0000.0001) // CMAX =         -4.902981733158691E+02
(PID.TID 0000.0001) // CINT =          1.485074750623752E+02
(PID.TID 0000.0001) // SYMBOLS (CMIN->CMAX): -abcdefghijklmnopqrstuvwxyz+
(PID.TID 0000.0001) //                  0.0: .
(PID.TID 0000.0001) // RANGE I (Lo:Hi:Step):(    -2:    83:     1)
(PID.TID 0000.0001) // RANGE J (Lo:Hi:Step):(    45:    -2:    -1)
(PID.TID 0000.0001) // RANGE K (Lo:Hi:Step):(   1:   1:   1)
(PID.TID 0000.0001) // =======================================================
(PID.TID 0000.0001) K =   1
(PID.TID 0000.0001) //                I=7       I=17      I=27      I=37      I=41      I=51      I=61      I=71      I=81
(PID.TID 0000.0001) // |--J--|210123456|890123456|890123456|890123456|890123890|234567890|234567890|234567890|234567890|23
(PID.TID 0000.0001) //     45 --------------------------------------------------------------------------------------------
(PID.TID 0000.0001) //     44 --------------------------------------------------------------------------------------------
(PID.TID 0000.0001) //     43 --------------------------------------------------------------------------------------------
(PID.TID 0000.0001) //     42 --------------------------------------------------------------------------------------------
(PID.TID 0000.0001) //     41 --------------------------------------------------------------------------------------------
(PID.TID 0000.0001) //     40 --------------------------------------------------------------------------------------------
(PID.TID 0000.0001) //     39 --------------------------------------------------------------------------------------------
(PID.TID 0000.0001) //     38 --------------------------------------------------------------------------------------------
(PID.TID 0000.0001) //     37 --------------------------------------------------------------------------------------------
(PID.TID 0000.0001) //     36 --------------------------------------------------------------------------------------------
(PID.TID 0000.0001) //     35 ---------------------------------------aaaaaaaaaaaaaa---------------------------------------
(PID.TID 0000.0001) //     34 ------------------------------------aaaaaaaaaaaaaaaaaaaa------------------------------------
(PID.TID 0000.0001) //     33 -----------------------------------aaaabbbbbbbbbbbbbbaaaa-----------------------------------
(PID.TID 0000.0001) //     32 ----------------------------------aaabbbccccccccccccbbbaaa----------------------------------
(PID.TID 0000.0001) //     31 ---------------------------------aaabbcddddddddddddddcbbaaa---------------------------------
(PID.TID 0000.0001) //     30 --------------------------------aabbcddeffffffffffffeddcbbaa--------------------------------
(PID.TID 0000.0001) //     29 -------------------------------aaabcdefghhiihhhhiihhgfedcbaaa-------------------------------
(PID.TID 0000.0001) //     28 ------------------------------aaabcdefhijkllkjjkllkjihfedcbaaa------------------------------
(PID.TID 0000.0001) //     27 ------------------------------aabbdefhjlmnoonmmnoonmljhfedbbaa------------------------------
(PID.TID 0000.0001) //     26 ------------------------------aabcdfhjlnpqrrqppqrrqpnljhfdcbaa------------------------------
(PID.TID 0000.0001) //     25 -----------------------------aabbdegilnqstuutsstuutsqnligedbbaa-----------------------------
(PID.TID 0000.0001) //     24 -----------------------------aabcdfhjmpsuwxxwuuwxxwuspmjhfdcbaa-----------------------------
(PID.TID 0000.0001) //     23 -----------------------------aabcdfhknqtwyzzywwyzzywtqnkhfdcbaa-----------------------------
(PID.TID 0000.0001) //     22 -----------------------------aabcdfiloruxz++zxxz++zxurolifdcbaa-----------------------------
(PID.TID 0000.0001) //     21 -----------------------------aabcdfiloruxz++zxxz++zxurolifdcbaa-----------------------------
(PID.TID 0000.0001) //     20 -----------------------------aabcdfhknqtwyzzywwyzzywtqnkhfdcbaa-----------------------------
(PID.TID 0000.0001) //     19 -----------------------------aabcdfhjmpsuwxxwuuwxxwuspmjhfdcbaa-----------------------------
(PID.TID 0000.0001) //     24 -----------------------------aabcdfhjmpsuwxxwuuwxxwuspmjhfdcbaa-----------------------------
(PID.TID 0000.0001) //     23 -----------------------------aabcdfhknqtwyzzywwyzzywtqnkhfdcbaa-----------------------------
(PID.TID 0000.0001) //     22 -----------------------------aabcdfiloruxz++zxxz++zxurolifdcbaa-----------------------------
(PID.TID 0000.0001) //     21 -----------------------------aabcdfiloruxz++zxxz++zxurolifdcbaa-----------------------------
(PID.TID 0000.0001) //     20 -----------------------------aabcdfhknqtwyzzywwyzzywtqnkhfdcbaa-----------------------------
(PID.TID 0000.0001) //     19 -----------------------------aabcdfhjmpsuwxxwuuwxxwuspmjhfdcbaa-----------------------------
(PID.TID 0000.0001) //     18 -----------------------------aabbdegilnqstuutsstuutsqnligedbbaa-----------------------------
(PID.TID 0000.0001) //     17 ------------------------------aabcdfhjlnpqrrqppqrrqpnljhfdcbaa------------------------------
(PID.TID 0000.0001) //     16 ------------------------------aabbdefhjlmnoonmmnoonmljhfedbbaa------------------------------
(PID.TID 0000.0001) //     15 ------------------------------aaabcdefhijkllkjjkllkjihfedcbaaa------------------------------
(PID.TID 0000.0001) //     14 -------------------------------aaabcdefghhiihhhhiihhgfedcbaaa-------------------------------
(PID.TID 0000.0001) //     13 --------------------------------aabbcddeffffffffffffeddcbbaa--------------------------------
(PID.TID 0000.0001) //     12 ---------------------------------aaabbcddddddddddddddcbbaaa---------------------------------
(PID.TID 0000.0001) //     11 ----------------------------------aaabbbccccccccccccbbbaaa----------------------------------
(PID.TID 0000.0001) //     10 -----------------------------------aaaabbbbbbbbbbbbbbaaaa-----------------------------------
(PID.TID 0000.0001) //      9 ------------------------------------aaaaaaaaaaaaaaaaaaaa------------------------------------
(PID.TID 0000.0001) //      8 ---------------------------------------aaaaaaaaaaaaaa---------------------------------------
(PID.TID 0000.0001) //      7 --------------------------------------------------------------------------------------------
(PID.TID 0000.0001) //      6 --------------------------------------------------------------------------------------------
(PID.TID 0000.0001) //      5 --------------------------------------------------------------------------------------------
(PID.TID 0000.0001) //      4 --------------------------------------------------------------------------------------------
(PID.TID 0000.0001) //      3 --------------------------------------------------------------------------------------------
(PID.TID 0000.0001) //      2 --------------------------------------------------------------------------------------------
(PID.TID 0000.0001) //      1 --------------------------------------------------------------------------------------------
(PID.TID 0000.0001) //      0 --------------------------------------------------------------------------------------------
(PID.TID 0000.0001) //     -1 --------------------------------------------------------------------------------------------
(PID.TID 0000.0001) //     -2 --------------------------------------------------------------------------------------------
(PID.TID 0000.0001) // =======================================================
(PID.TID 0000.0001) // END OF FIELD                                          =
(PID.TID 0000.0001) // =======================================================
(PID.TID 0000.0001) 
(PID.TID 0000.0001) // =======================================================
(PID.TID 0000.0001) // Field Model Ro_surf (ini_masks_etc)
(PID.TID 0000.0001) // CMIN =          1.000000000000000E+32
(PID.TID 0000.0001) // CMAX =         -1.000000000000000E+32
(PID.TID 0000.0001) // CINT =          0.000000000000000E+00
(PID.TID 0000.0001) // SYMBOLS (CMIN->CMAX): -abcdefghijklmnopqrstuvwxyz+
(PID.TID 0000.0001) //                  0.0: .
(PID.TID 0000.0001) // RANGE I (Lo:Hi:Step):(    -2:    83:     1)
(PID.TID 0000.0001) // RANGE J (Lo:Hi:Step):(    45:    -2:    -1)
(PID.TID 0000.0001) // RANGE K (Lo:Hi:Step):(   1:   1:   1)
(PID.TID 0000.0001) // =======================================================
(PID.TID 0000.0001) // =======================================================
(PID.TID 0000.0001) // END OF FIELD                                          =
(PID.TID 0000.0001) // =======================================================
(PID.TID 0000.0001) 
(PID.TID 0000.0001) // =======================================================
(PID.TID 0000.0001) // Field hFacC at iteration          0
(PID.TID 0000.0001) // CMIN =          8.716411970059894E-01
(PID.TID 0000.0001) // CMAX =          1.000000000000000E+00
(PID.TID 0000.0001) // CINT =          4.754029740518911E-03
(PID.TID 0000.0001) // SYMBOLS (CMIN->CMAX): -abcdefghijklmnopqrstuvwxyz+
(PID.TID 0000.0001) //                  0.0: .
(PID.TID 0000.0001) // RANGE I (Lo:Hi:Step):(    -2:    83:     1)
(PID.TID 0000.0001) // RANGE J (Lo:Hi:Step):(    45:    -2:    -1)
(PID.TID 0000.0001) // RANGE K (Lo:Hi:Step):(   1:   1:   1)
(PID.TID 0000.0001) // =======================================================
(PID.TID 0000.0001) K =   1
(PID.TID 0000.0001) //                I=7       I=17      I=27      I=37      I=41      I=51      I=61      I=71      I=81
(PID.TID 0000.0001) // |--J--|210123456|890123456|890123456|890123456|890123890|234567890|234567890|234567890|234567890|23
(PID.TID 0000.0001) //     45 ++++++++++++++++++++++++++++++++++++++++++++++++++++++++++++++++++++++++++++++++++++++++++++
(PID.TID 0000.0001) //     44 ++++++++++++++++++++++++++++++++++++++++++++++++++++++++++++++++++++++++++++++++++++++++++++
(PID.TID 0000.0001) //     43 ++++++++++++++++++++++++++++++++++++++++++++++++++++++++++++++++++++++++++++++++++++++++++++
(PID.TID 0000.0001) //     42 ++++++++++++++++++++++++++++++++++++++++++++++++++++++++++++++++++++++++++++++++++++++++++++
(PID.TID 0000.0001) //     41 ++++++++++++++++++++++++++++++++++++++++++++++++++++++++++++++++++++++++++++++++++++++++++++
(PID.TID 0000.0001) //     40 ++++++++++++++++++++++++++++++++++++++++++++++++++++++++++++++++++++++++++++++++++++++++++++
(PID.TID 0000.0001) //     39 ++++++++++++++++++++++++++++++++++++++++++++++++++++++++++++++++++++++++++++++++++++++++++++
(PID.TID 0000.0001) //     38 ++++++++++++++++++++++++++++++++++++++++++++++++++++++++++++++++++++++++++++++++++++++++++++
(PID.TID 0000.0001) //     37 ++++++++++++++++++++++++++++++++++++++++++++++++++++++++++++++++++++++++++++++++++++++++++++
(PID.TID 0000.0001) //     36 ++++++++++++++++++++++++++++++++++++++++++++++++++++++++++++++++++++++++++++++++++++++++++++
(PID.TID 0000.0001) //     35 ++++++++++++++++++++++++++++++++++++++++++++++++++++++++++++++++++++++++++++++++++++++++++++
(PID.TID 0000.0001) //     34 ++++++++++++++++++++++++++++++++++++++++++++++++++++++++++++++++++++++++++++++++++++++++++++
(PID.TID 0000.0001) //     33 ++++++++++++++++++++++++++++++++++++++++++++++++++++++++++++++++++++++++++++++++++++++++++++
(PID.TID 0000.0001) //     32 ++++++++++++++++++++++++++++++++++++++++++++++++++++++++++++++++++++++++++++++++++++++++++++
(PID.TID 0000.0001) //     31 ++++++++++++++++++++++++++++++++++++++++++++++++++++++++++++++++++++++++++++++++++++++++++++
(PID.TID 0000.0001) //     30 ++++++++++++++++++++++++++++++++++++++++++++++++++++++++++++++++++++++++++++++++++++++++++++
(PID.TID 0000.0001) //     29 ++++++++++++++++++++++++++++++++++++++++++++++++++++++++++++++++++++++++++++++++++++++++++++
(PID.TID 0000.0001) //     28 ++++++++++++++++++++++++++++++++++++++++++++++++++++++++++++++++++++++++++++++++++++++++++++
(PID.TID 0000.0001) //     27 ++++++++++++++++++++++++++++++++++++++++++++++++++++++++++++++++++++++++++++++++++++++++++++
(PID.TID 0000.0001) //     26 ++++++++++++++++++++++++++++++++++++++++++++++++++++++++++++++++++++++++++++++++++++++++++++
(PID.TID 0000.0001) //     25 ++++++++++++++++++++++++++++++++++++++++++++++++++++++++++++++++++++++++++++++++++++++++++++
(PID.TID 0000.0001) //     24 ++++++++++++++++++++++++++++++++++++++++++++++++++++++++++++++++++++++++++++++++++++++++++++
(PID.TID 0000.0001) //     23 ++++++++++++++++++++++++++++++++++++++++++++++++++++++++++++++++++++++++++++++++++++++++++++
(PID.TID 0000.0001) //     22 ++++++++++++++++++++++++++++++++++++++++++--++++--++++++++++++++++++++++++++++++++++++++++++
(PID.TID 0000.0001) //     21 ++++++++++++++++++++++++++++++++++++++++++--++++--++++++++++++++++++++++++++++++++++++++++++
(PID.TID 0000.0001) //     20 ++++++++++++++++++++++++++++++++++++++++++++++++++++++++++++++++++++++++++++++++++++++++++++
(PID.TID 0000.0001) //     19 ++++++++++++++++++++++++++++++++++++++++++++++++++++++++++++++++++++++++++++++++++++++++++++
(PID.TID 0000.0001) //     24 ++++++++++++++++++++++++++++++++++++++++++++++++++++++++++++++++++++++++++++++++++++++++++++
(PID.TID 0000.0001) //     23 ++++++++++++++++++++++++++++++++++++++++++++++++++++++++++++++++++++++++++++++++++++++++++++
(PID.TID 0000.0001) //     22 ++++++++++++++++++++++++++++++++++++++++++--++++--++++++++++++++++++++++++++++++++++++++++++
(PID.TID 0000.0001) //     21 ++++++++++++++++++++++++++++++++++++++++++--++++--++++++++++++++++++++++++++++++++++++++++++
(PID.TID 0000.0001) //     20 ++++++++++++++++++++++++++++++++++++++++++++++++++++++++++++++++++++++++++++++++++++++++++++
(PID.TID 0000.0001) //     19 ++++++++++++++++++++++++++++++++++++++++++++++++++++++++++++++++++++++++++++++++++++++++++++
(PID.TID 0000.0001) //     18 ++++++++++++++++++++++++++++++++++++++++++++++++++++++++++++++++++++++++++++++++++++++++++++
(PID.TID 0000.0001) //     17 ++++++++++++++++++++++++++++++++++++++++++++++++++++++++++++++++++++++++++++++++++++++++++++
(PID.TID 0000.0001) //     16 ++++++++++++++++++++++++++++++++++++++++++++++++++++++++++++++++++++++++++++++++++++++++++++
(PID.TID 0000.0001) //     15 ++++++++++++++++++++++++++++++++++++++++++++++++++++++++++++++++++++++++++++++++++++++++++++
(PID.TID 0000.0001) //     14 ++++++++++++++++++++++++++++++++++++++++++++++++++++++++++++++++++++++++++++++++++++++++++++
(PID.TID 0000.0001) //     13 ++++++++++++++++++++++++++++++++++++++++++++++++++++++++++++++++++++++++++++++++++++++++++++
(PID.TID 0000.0001) //     12 ++++++++++++++++++++++++++++++++++++++++++++++++++++++++++++++++++++++++++++++++++++++++++++
(PID.TID 0000.0001) //     11 ++++++++++++++++++++++++++++++++++++++++++++++++++++++++++++++++++++++++++++++++++++++++++++
(PID.TID 0000.0001) //     10 ++++++++++++++++++++++++++++++++++++++++++++++++++++++++++++++++++++++++++++++++++++++++++++
(PID.TID 0000.0001) //      9 ++++++++++++++++++++++++++++++++++++++++++++++++++++++++++++++++++++++++++++++++++++++++++++
(PID.TID 0000.0001) //      8 ++++++++++++++++++++++++++++++++++++++++++++++++++++++++++++++++++++++++++++++++++++++++++++
(PID.TID 0000.0001) //      7 ++++++++++++++++++++++++++++++++++++++++++++++++++++++++++++++++++++++++++++++++++++++++++++
(PID.TID 0000.0001) //      6 ++++++++++++++++++++++++++++++++++++++++++++++++++++++++++++++++++++++++++++++++++++++++++++
(PID.TID 0000.0001) //      5 ++++++++++++++++++++++++++++++++++++++++++++++++++++++++++++++++++++++++++++++++++++++++++++
(PID.TID 0000.0001) //      4 ++++++++++++++++++++++++++++++++++++++++++++++++++++++++++++++++++++++++++++++++++++++++++++
(PID.TID 0000.0001) //      3 ++++++++++++++++++++++++++++++++++++++++++++++++++++++++++++++++++++++++++++++++++++++++++++
(PID.TID 0000.0001) //      2 ++++++++++++++++++++++++++++++++++++++++++++++++++++++++++++++++++++++++++++++++++++++++++++
(PID.TID 0000.0001) //      1 ++++++++++++++++++++++++++++++++++++++++++++++++++++++++++++++++++++++++++++++++++++++++++++
(PID.TID 0000.0001) //      0 ++++++++++++++++++++++++++++++++++++++++++++++++++++++++++++++++++++++++++++++++++++++++++++
(PID.TID 0000.0001) //     -1 ++++++++++++++++++++++++++++++++++++++++++++++++++++++++++++++++++++++++++++++++++++++++++++
(PID.TID 0000.0001) //     -2 ++++++++++++++++++++++++++++++++++++++++++++++++++++++++++++++++++++++++++++++++++++++++++++
(PID.TID 0000.0001) // =======================================================
(PID.TID 0000.0001) // END OF FIELD                                          =
(PID.TID 0000.0001) // =======================================================
(PID.TID 0000.0001) 
(PID.TID 0000.0001) // =======================================================
(PID.TID 0000.0001) // Field hFacW at iteration          0
(PID.TID 0000.0001) // CMIN =          8.716411970059894E-01
(PID.TID 0000.0001) // CMAX =          1.000000000000000E+00
(PID.TID 0000.0001) // CINT =          4.754029740518911E-03
(PID.TID 0000.0001) // SYMBOLS (CMIN->CMAX): -abcdefghijklmnopqrstuvwxyz+
(PID.TID 0000.0001) //                  0.0: .
(PID.TID 0000.0001) // RANGE I (Lo:Hi:Step):(    -2:    83:     1)
(PID.TID 0000.0001) // RANGE J (Lo:Hi:Step):(    45:    -2:    -1)
(PID.TID 0000.0001) // RANGE K (Lo:Hi:Step):(   1:   1:   1)
(PID.TID 0000.0001) // =======================================================
(PID.TID 0000.0001) K =   1
(PID.TID 0000.0001) //                I=7       I=17      I=27      I=37      I=41      I=51      I=61      I=71      I=81
(PID.TID 0000.0001) // |--J--|210123456|890123456|890123456|890123456|890123890|234567890|234567890|234567890|234567890|23
(PID.TID 0000.0001) //     45 ++++++++++++++++++++++++++++++++++++++++++++++++++++++++++++++++++++++++++++++++++++++++++++
(PID.TID 0000.0001) //     44 ++++++++++++++++++++++++++++++++++++++++++++++++++++++++++++++++++++++++++++++++++++++++++++
(PID.TID 0000.0001) //     43 ++++++++++++++++++++++++++++++++++++++++++++++++++++++++++++++++++++++++++++++++++++++++++++
(PID.TID 0000.0001) //     42 ++++++++++++++++++++++++++++++++++++++++++++++++++++++++++++++++++++++++++++++++++++++++++++
(PID.TID 0000.0001) //     41 ++++++++++++++++++++++++++++++++++++++++++++++++++++++++++++++++++++++++++++++++++++++++++++
(PID.TID 0000.0001) //     40 ++++++++++++++++++++++++++++++++++++++++++++++++++++++++++++++++++++++++++++++++++++++++++++
(PID.TID 0000.0001) //     39 ++++++++++++++++++++++++++++++++++++++++++++++++++++++++++++++++++++++++++++++++++++++++++++
(PID.TID 0000.0001) //     38 ++++++++++++++++++++++++++++++++++++++++++++++++++++++++++++++++++++++++++++++++++++++++++++
(PID.TID 0000.0001) //     37 ++++++++++++++++++++++++++++++++++++++++++++++++++++++++++++++++++++++++++++++++++++++++++++
(PID.TID 0000.0001) //     36 ++++++++++++++++++++++++++++++++++++++++++++++++++++++++++++++++++++++++++++++++++++++++++++
(PID.TID 0000.0001) //     35 ++++++++++++++++++++++++++++++++++++++++++++++++++++++++++++++++++++++++++++++++++++++++++++
(PID.TID 0000.0001) //     34 ++++++++++++++++++++++++++++++++++++++++++++++++++++++++++++++++++++++++++++++++++++++++++++
(PID.TID 0000.0001) //     33 ++++++++++++++++++++++++++++++++++++++++++++++++++++++++++++++++++++++++++++++++++++++++++++
(PID.TID 0000.0001) //     32 ++++++++++++++++++++++++++++++++++++++++++++++++++++++++++++++++++++++++++++++++++++++++++++
(PID.TID 0000.0001) //     31 ++++++++++++++++++++++++++++++++++++++++++++++++++++++++++++++++++++++++++++++++++++++++++++
(PID.TID 0000.0001) //     30 ++++++++++++++++++++++++++++++++++++++++++++++++++++++++++++++++++++++++++++++++++++++++++++
(PID.TID 0000.0001) //     29 ++++++++++++++++++++++++++++++++++++++++++++++++++++++++++++++++++++++++++++++++++++++++++++
(PID.TID 0000.0001) //     28 ++++++++++++++++++++++++++++++++++++++++++++++++++++++++++++++++++++++++++++++++++++++++++++
(PID.TID 0000.0001) //     27 ++++++++++++++++++++++++++++++++++++++++++++++++++++++++++++++++++++++++++++++++++++++++++++
(PID.TID 0000.0001) //     26 ++++++++++++++++++++++++++++++++++++++++++++++++++++++++++++++++++++++++++++++++++++++++++++
(PID.TID 0000.0001) //     25 ++++++++++++++++++++++++++++++++++++++++++++++++++++++++++++++++++++++++++++++++++++++++++++
(PID.TID 0000.0001) //     24 ++++++++++++++++++++++++++++++++++++++++++++++++++++++++++++++++++++++++++++++++++++++++++++
(PID.TID 0000.0001) //     23 ++++++++++++++++++++++++++++++++++++++++++++++++++++++++++++++++++++++++++++++++++++++++++++
(PID.TID 0000.0001) //     22 ++++++++++++++++++++++++++++++++++++++++++---+++---+++++++++++++++++++++++++++++++++++++++++
(PID.TID 0000.0001) //     21 ++++++++++++++++++++++++++++++++++++++++++---+++---+++++++++++++++++++++++++++++++++++++++++
(PID.TID 0000.0001) //     20 ++++++++++++++++++++++++++++++++++++++++++++++++++++++++++++++++++++++++++++++++++++++++++++
(PID.TID 0000.0001) //     19 ++++++++++++++++++++++++++++++++++++++++++++++++++++++++++++++++++++++++++++++++++++++++++++
(PID.TID 0000.0001) //     24 ++++++++++++++++++++++++++++++++++++++++++++++++++++++++++++++++++++++++++++++++++++++++++++
(PID.TID 0000.0001) //     23 ++++++++++++++++++++++++++++++++++++++++++++++++++++++++++++++++++++++++++++++++++++++++++++
(PID.TID 0000.0001) //     22 ++++++++++++++++++++++++++++++++++++++++++---+++---+++++++++++++++++++++++++++++++++++++++++
(PID.TID 0000.0001) //     21 ++++++++++++++++++++++++++++++++++++++++++---+++---+++++++++++++++++++++++++++++++++++++++++
(PID.TID 0000.0001) //     20 ++++++++++++++++++++++++++++++++++++++++++++++++++++++++++++++++++++++++++++++++++++++++++++
(PID.TID 0000.0001) //     19 ++++++++++++++++++++++++++++++++++++++++++++++++++++++++++++++++++++++++++++++++++++++++++++
(PID.TID 0000.0001) //     18 ++++++++++++++++++++++++++++++++++++++++++++++++++++++++++++++++++++++++++++++++++++++++++++
(PID.TID 0000.0001) //     17 ++++++++++++++++++++++++++++++++++++++++++++++++++++++++++++++++++++++++++++++++++++++++++++
(PID.TID 0000.0001) //     16 ++++++++++++++++++++++++++++++++++++++++++++++++++++++++++++++++++++++++++++++++++++++++++++
(PID.TID 0000.0001) //     15 ++++++++++++++++++++++++++++++++++++++++++++++++++++++++++++++++++++++++++++++++++++++++++++
(PID.TID 0000.0001) //     14 ++++++++++++++++++++++++++++++++++++++++++++++++++++++++++++++++++++++++++++++++++++++++++++
(PID.TID 0000.0001) //     13 ++++++++++++++++++++++++++++++++++++++++++++++++++++++++++++++++++++++++++++++++++++++++++++
(PID.TID 0000.0001) //     12 ++++++++++++++++++++++++++++++++++++++++++++++++++++++++++++++++++++++++++++++++++++++++++++
(PID.TID 0000.0001) //     11 ++++++++++++++++++++++++++++++++++++++++++++++++++++++++++++++++++++++++++++++++++++++++++++
(PID.TID 0000.0001) //     10 ++++++++++++++++++++++++++++++++++++++++++++++++++++++++++++++++++++++++++++++++++++++++++++
(PID.TID 0000.0001) //      9 ++++++++++++++++++++++++++++++++++++++++++++++++++++++++++++++++++++++++++++++++++++++++++++
(PID.TID 0000.0001) //      8 ++++++++++++++++++++++++++++++++++++++++++++++++++++++++++++++++++++++++++++++++++++++++++++
(PID.TID 0000.0001) //      7 ++++++++++++++++++++++++++++++++++++++++++++++++++++++++++++++++++++++++++++++++++++++++++++
(PID.TID 0000.0001) //      6 ++++++++++++++++++++++++++++++++++++++++++++++++++++++++++++++++++++++++++++++++++++++++++++
(PID.TID 0000.0001) //      5 ++++++++++++++++++++++++++++++++++++++++++++++++++++++++++++++++++++++++++++++++++++++++++++
(PID.TID 0000.0001) //      4 ++++++++++++++++++++++++++++++++++++++++++++++++++++++++++++++++++++++++++++++++++++++++++++
(PID.TID 0000.0001) //      3 ++++++++++++++++++++++++++++++++++++++++++++++++++++++++++++++++++++++++++++++++++++++++++++
(PID.TID 0000.0001) //      2 ++++++++++++++++++++++++++++++++++++++++++++++++++++++++++++++++++++++++++++++++++++++++++++
(PID.TID 0000.0001) //      1 ++++++++++++++++++++++++++++++++++++++++++++++++++++++++++++++++++++++++++++++++++++++++++++
(PID.TID 0000.0001) //      0 ++++++++++++++++++++++++++++++++++++++++++++++++++++++++++++++++++++++++++++++++++++++++++++
(PID.TID 0000.0001) //     -1 ++++++++++++++++++++++++++++++++++++++++++++++++++++++++++++++++++++++++++++++++++++++++++++
(PID.TID 0000.0001) //     -2 ++++++++++++++++++++++++++++++++++++++++++++++++++++++++++++++++++++++++++++++++++++++++++++
(PID.TID 0000.0001) // =======================================================
(PID.TID 0000.0001) // END OF FIELD                                          =
(PID.TID 0000.0001) // =======================================================
(PID.TID 0000.0001) 
(PID.TID 0000.0001) // =======================================================
(PID.TID 0000.0001) // Field hFacS at iteration          0
(PID.TID 0000.0001) // CMIN =          8.716411970059894E-01
(PID.TID 0000.0001) // CMAX =          1.000000000000000E+00
(PID.TID 0000.0001) // CINT =          4.754029740518911E-03
(PID.TID 0000.0001) // SYMBOLS (CMIN->CMAX): -abcdefghijklmnopqrstuvwxyz+
(PID.TID 0000.0001) //                  0.0: .
(PID.TID 0000.0001) // RANGE I (Lo:Hi:Step):(    -2:    83:     1)
(PID.TID 0000.0001) // RANGE J (Lo:Hi:Step):(    45:    -2:    -1)
(PID.TID 0000.0001) // RANGE K (Lo:Hi:Step):(   1:   1:   1)
(PID.TID 0000.0001) // =======================================================
(PID.TID 0000.0001) K =   1
(PID.TID 0000.0001) //                I=7       I=17      I=27      I=37      I=41      I=51      I=61      I=71      I=81
(PID.TID 0000.0001) // |--J--|210123456|890123456|890123456|890123456|890123890|234567890|234567890|234567890|234567890|23
(PID.TID 0000.0001) //     45 ++++++++++++++++++++++++++++++++++++++++++++++++++++++++++++++++++++++++++++++++++++++++++++
(PID.TID 0000.0001) //     44 ++++++++++++++++++++++++++++++++++++++++++++++++++++++++++++++++++++++++++++++++++++++++++++
(PID.TID 0000.0001) //     43 ++++++++++++++++++++++++++++++++++++++++++++++++++++++++++++++++++++++++++++++++++++++++++++
(PID.TID 0000.0001) //     42 ++++++++++++++++++++++++++++++++++++++++++++++++++++++++++++++++++++++++++++++++++++++++++++
(PID.TID 0000.0001) //     41 ++++++++++++++++++++++++++++++++++++++++++++++++++++++++++++++++++++++++++++++++++++++++++++
(PID.TID 0000.0001) //     40 ++++++++++++++++++++++++++++++++++++++++++++++++++++++++++++++++++++++++++++++++++++++++++++
(PID.TID 0000.0001) //     39 ++++++++++++++++++++++++++++++++++++++++++++++++++++++++++++++++++++++++++++++++++++++++++++
(PID.TID 0000.0001) //     38 ++++++++++++++++++++++++++++++++++++++++++++++++++++++++++++++++++++++++++++++++++++++++++++
(PID.TID 0000.0001) //     37 ++++++++++++++++++++++++++++++++++++++++++++++++++++++++++++++++++++++++++++++++++++++++++++
(PID.TID 0000.0001) //     36 ++++++++++++++++++++++++++++++++++++++++++++++++++++++++++++++++++++++++++++++++++++++++++++
(PID.TID 0000.0001) //     35 ++++++++++++++++++++++++++++++++++++++++++++++++++++++++++++++++++++++++++++++++++++++++++++
(PID.TID 0000.0001) //     34 ++++++++++++++++++++++++++++++++++++++++++++++++++++++++++++++++++++++++++++++++++++++++++++
(PID.TID 0000.0001) //     33 ++++++++++++++++++++++++++++++++++++++++++++++++++++++++++++++++++++++++++++++++++++++++++++
(PID.TID 0000.0001) //     32 ++++++++++++++++++++++++++++++++++++++++++++++++++++++++++++++++++++++++++++++++++++++++++++
(PID.TID 0000.0001) //     31 ++++++++++++++++++++++++++++++++++++++++++++++++++++++++++++++++++++++++++++++++++++++++++++
(PID.TID 0000.0001) //     30 ++++++++++++++++++++++++++++++++++++++++++++++++++++++++++++++++++++++++++++++++++++++++++++
(PID.TID 0000.0001) //     29 ++++++++++++++++++++++++++++++++++++++++++++++++++++++++++++++++++++++++++++++++++++++++++++
(PID.TID 0000.0001) //     28 ++++++++++++++++++++++++++++++++++++++++++++++++++++++++++++++++++++++++++++++++++++++++++++
(PID.TID 0000.0001) //     27 ++++++++++++++++++++++++++++++++++++++++++++++++++++++++++++++++++++++++++++++++++++++++++++
(PID.TID 0000.0001) //     26 ++++++++++++++++++++++++++++++++++++++++++++++++++++++++++++++++++++++++++++++++++++++++++++
(PID.TID 0000.0001) //     25 ++++++++++++++++++++++++++++++++++++++++++++++++++++++++++++++++++++++++++++++++++++++++++++
(PID.TID 0000.0001) //     24 ++++++++++++++++++++++++++++++++++++++++++++++++++++++++++++++++++++++++++++++++++++++++++++
(PID.TID 0000.0001) //     23 ++++++++++++++++++++++++++++++++++++++++++--++++--++++++++++++++++++++++++++++++++++++++++++
(PID.TID 0000.0001) //     22 ++++++++++++++++++++++++++++++++++++++++++--++++--++++++++++++++++++++++++++++++++++++++++++
(PID.TID 0000.0001) //     21 ++++++++++++++++++++++++++++++++++++++++++--++++--++++++++++++++++++++++++++++++++++++++++++
(PID.TID 0000.0001) //     20 ++++++++++++++++++++++++++++++++++++++++++++++++++++++++++++++++++++++++++++++++++++++++++++
(PID.TID 0000.0001) //     19 ++++++++++++++++++++++++++++++++++++++++++++++++++++++++++++++++++++++++++++++++++++++++++++
(PID.TID 0000.0001) //     24 ++++++++++++++++++++++++++++++++++++++++++++++++++++++++++++++++++++++++++++++++++++++++++++
(PID.TID 0000.0001) //     23 ++++++++++++++++++++++++++++++++++++++++++--++++--++++++++++++++++++++++++++++++++++++++++++
(PID.TID 0000.0001) //     22 ++++++++++++++++++++++++++++++++++++++++++--++++--++++++++++++++++++++++++++++++++++++++++++
(PID.TID 0000.0001) //     21 ++++++++++++++++++++++++++++++++++++++++++--++++--++++++++++++++++++++++++++++++++++++++++++
(PID.TID 0000.0001) //     20 ++++++++++++++++++++++++++++++++++++++++++++++++++++++++++++++++++++++++++++++++++++++++++++
(PID.TID 0000.0001) //     19 ++++++++++++++++++++++++++++++++++++++++++++++++++++++++++++++++++++++++++++++++++++++++++++
(PID.TID 0000.0001) //     18 ++++++++++++++++++++++++++++++++++++++++++++++++++++++++++++++++++++++++++++++++++++++++++++
(PID.TID 0000.0001) //     17 ++++++++++++++++++++++++++++++++++++++++++++++++++++++++++++++++++++++++++++++++++++++++++++
(PID.TID 0000.0001) //     16 ++++++++++++++++++++++++++++++++++++++++++++++++++++++++++++++++++++++++++++++++++++++++++++
(PID.TID 0000.0001) //     15 ++++++++++++++++++++++++++++++++++++++++++++++++++++++++++++++++++++++++++++++++++++++++++++
(PID.TID 0000.0001) //     14 ++++++++++++++++++++++++++++++++++++++++++++++++++++++++++++++++++++++++++++++++++++++++++++
(PID.TID 0000.0001) //     13 ++++++++++++++++++++++++++++++++++++++++++++++++++++++++++++++++++++++++++++++++++++++++++++
(PID.TID 0000.0001) //     12 ++++++++++++++++++++++++++++++++++++++++++++++++++++++++++++++++++++++++++++++++++++++++++++
(PID.TID 0000.0001) //     11 ++++++++++++++++++++++++++++++++++++++++++++++++++++++++++++++++++++++++++++++++++++++++++++
(PID.TID 0000.0001) //     10 ++++++++++++++++++++++++++++++++++++++++++++++++++++++++++++++++++++++++++++++++++++++++++++
(PID.TID 0000.0001) //      9 ++++++++++++++++++++++++++++++++++++++++++++++++++++++++++++++++++++++++++++++++++++++++++++
(PID.TID 0000.0001) //      8 ++++++++++++++++++++++++++++++++++++++++++++++++++++++++++++++++++++++++++++++++++++++++++++
(PID.TID 0000.0001) //      7 ++++++++++++++++++++++++++++++++++++++++++++++++++++++++++++++++++++++++++++++++++++++++++++
(PID.TID 0000.0001) //      6 ++++++++++++++++++++++++++++++++++++++++++++++++++++++++++++++++++++++++++++++++++++++++++++
(PID.TID 0000.0001) //      5 ++++++++++++++++++++++++++++++++++++++++++++++++++++++++++++++++++++++++++++++++++++++++++++
(PID.TID 0000.0001) //      4 ++++++++++++++++++++++++++++++++++++++++++++++++++++++++++++++++++++++++++++++++++++++++++++
(PID.TID 0000.0001) //      3 ++++++++++++++++++++++++++++++++++++++++++++++++++++++++++++++++++++++++++++++++++++++++++++
(PID.TID 0000.0001) //      2 ++++++++++++++++++++++++++++++++++++++++++++++++++++++++++++++++++++++++++++++++++++++++++++
(PID.TID 0000.0001) //      1 ++++++++++++++++++++++++++++++++++++++++++++++++++++++++++++++++++++++++++++++++++++++++++++
(PID.TID 0000.0001) //      0 ++++++++++++++++++++++++++++++++++++++++++++++++++++++++++++++++++++++++++++++++++++++++++++
(PID.TID 0000.0001) //     -1 ++++++++++++++++++++++++++++++++++++++++++++++++++++++++++++++++++++++++++++++++++++++++++++
(PID.TID 0000.0001) //     -2 ++++++++++++++++++++++++++++++++++++++++++++++++++++++++++++++++++++++++++++++++++++++++++++
(PID.TID 0000.0001) // =======================================================
(PID.TID 0000.0001) // END OF FIELD                                          =
(PID.TID 0000.0001) // =======================================================
(PID.TID 0000.0001) 
(PID.TID 0000.0001) GAD_INIT_FIXED: GAD_OlMinSize=  2  0  1
(PID.TID 0000.0001) 
(PID.TID 0000.0001) // ===================================
(PID.TID 0000.0001) // GAD parameters :
(PID.TID 0000.0001) // ===================================
(PID.TID 0000.0001) tempAdvScheme =   /* Temp. Horiz.Advection scheme selector */
(PID.TID 0000.0001)                       2
(PID.TID 0000.0001)     ;
(PID.TID 0000.0001) tempVertAdvScheme =   /* Temp. Vert. Advection scheme selector */
(PID.TID 0000.0001)                       2
(PID.TID 0000.0001)     ;
(PID.TID 0000.0001) tempMultiDimAdvec =   /* use Muti-Dim Advec method for Temp */
(PID.TID 0000.0001)                   F
(PID.TID 0000.0001)     ;
(PID.TID 0000.0001) tempSOM_Advection = /* use 2nd Order Moment Advection for Temp */
(PID.TID 0000.0001)                   F
(PID.TID 0000.0001)     ;
(PID.TID 0000.0001) AdamsBashforthGt = /* apply Adams-Bashforth extrapolation on Gt */
(PID.TID 0000.0001)                   T
(PID.TID 0000.0001)     ;
(PID.TID 0000.0001) AdamsBashforth_T = /* apply Adams-Bashforth extrapolation on Temp */
(PID.TID 0000.0001)                   F
(PID.TID 0000.0001)     ;
(PID.TID 0000.0001) saltAdvScheme =   /* Salt. Horiz.advection scheme selector */
(PID.TID 0000.0001)                       4
(PID.TID 0000.0001)     ;
(PID.TID 0000.0001) saltVertAdvScheme =   /* Salt. Vert. Advection scheme selector */
(PID.TID 0000.0001)                       4
(PID.TID 0000.0001)     ;
(PID.TID 0000.0001) saltMultiDimAdvec =   /* use Muti-Dim Advec method for Salt */
(PID.TID 0000.0001)                   F
(PID.TID 0000.0001)     ;
(PID.TID 0000.0001) saltSOM_Advection = /* use 2nd Order Moment Advection for Salt */
(PID.TID 0000.0001)                   F
(PID.TID 0000.0001)     ;
(PID.TID 0000.0001) AdamsBashforthGs = /* apply Adams-Bashforth extrapolation on Gs */
(PID.TID 0000.0001)                   T
(PID.TID 0000.0001)     ;
(PID.TID 0000.0001) AdamsBashforth_S = /* apply Adams-Bashforth extrapolation on Salt */
(PID.TID 0000.0001)                   F
(PID.TID 0000.0001)     ;
(PID.TID 0000.0001) // ===================================
(PID.TID 0000.0001) %MON fCori_max                    =   1.0000000000000E-04
(PID.TID 0000.0001) %MON fCori_min                    =   1.0000000000000E-04
(PID.TID 0000.0001) %MON fCori_mean                   =   1.0000000000000E-04
(PID.TID 0000.0001) %MON fCori_sd                     =   1.6398557858843E-18
(PID.TID 0000.0001) %MON fCoriG_max                   =   1.0000000000000E-04
(PID.TID 0000.0001) %MON fCoriG_min                   =   1.0000000000000E-04
(PID.TID 0000.0001) %MON fCoriG_mean                  =   1.0000000000000E-04
(PID.TID 0000.0001) %MON fCoriG_sd                    =   1.6398557858843E-18
(PID.TID 0000.0001) %MON fCoriCos_max                 =   0.0000000000000E+00
(PID.TID 0000.0001) %MON fCoriCos_min                 =   0.0000000000000E+00
(PID.TID 0000.0001) %MON fCoriCos_mean                =   0.0000000000000E+00
(PID.TID 0000.0001) %MON fCoriCos_sd                  =   0.0000000000000E+00
(PID.TID 0000.0001) INI_CG2D: CG2D normalisation factor =  2.2222222222222226E-04
(PID.TID 0000.0001) 
(PID.TID 0000.0001) // =======================================================
(PID.TID 0000.0001) // Model configuration
(PID.TID 0000.0001) // =======================================================
(PID.TID 0000.0001) //
(PID.TID 0000.0001) // "Physical" paramters ( PARM01 in namelist )
(PID.TID 0000.0001) //
(PID.TID 0000.0001) buoyancyRelation = /* Type of relation to get Buoyancy */
(PID.TID 0000.0001)               'OCEANIC'
(PID.TID 0000.0001)     ;
(PID.TID 0000.0001) fluidIsAir   =  /* fluid major constituent is Air */
(PID.TID 0000.0001)                   F
(PID.TID 0000.0001)     ;
(PID.TID 0000.0001) fluidIsWater =  /* fluid major constituent is Water */
(PID.TID 0000.0001)                   T
(PID.TID 0000.0001)     ;
(PID.TID 0000.0001) usingPCoords =  /* use p (or p*) vertical coordinate */
(PID.TID 0000.0001)                   F
(PID.TID 0000.0001)     ;
(PID.TID 0000.0001) usingZCoords =  /* use z (or z*) vertical coordinate */
(PID.TID 0000.0001)                   T
(PID.TID 0000.0001)     ;
(PID.TID 0000.0001) tRef =   /* Reference temperature profile ( oC or K ) */
(PID.TID 0000.0001)                 6.968340000000000E-01,      /* K =  1 */
(PID.TID 0000.0001)                 4.977380000000000E-01,      /* K =  2 */
(PID.TID 0000.0001)                 2.986430000000000E-01,      /* K =  3 */
(PID.TID 0000.0001)                 9.954770000000000E-02,      /* K =  4 */
(PID.TID 0000.0001)                -9.954770000000000E-02,      /* K =  5 */
(PID.TID 0000.0001)                -2.986430000000000E-01,      /* K =  6 */
(PID.TID 0000.0001)                -4.977380000000000E-01,      /* K =  7 */
(PID.TID 0000.0001)                -6.968340000000000E-01       /* K =  8 */
(PID.TID 0000.0001)     ;
(PID.TID 0000.0001) sRef =   /* Reference salinity profile ( psu ) */
(PID.TID 0000.0001)     8 @  3.500000000000000E+01              /* K =  1:  8 */
(PID.TID 0000.0001)     ;
(PID.TID 0000.0001) viscAh  =   /* Lateral eddy viscosity ( m^2/s ) */
(PID.TID 0000.0001)                 1.000000000000000E+03
(PID.TID 0000.0001)     ;
(PID.TID 0000.0001) viscAhMax = /* Maximum lateral eddy viscosity ( m^2/s ) */
(PID.TID 0000.0001)                 1.000000000000000E+21
(PID.TID 0000.0001)     ;
(PID.TID 0000.0001) viscAhGrid = /* Grid dependent lateral eddy viscosity ( non-dim. ) */
(PID.TID 0000.0001)                 0.000000000000000E+00
(PID.TID 0000.0001)     ;
(PID.TID 0000.0001) useFullLeith = /* Use Full Form of Leith Viscosity on/off flag*/
(PID.TID 0000.0001)                   F
(PID.TID 0000.0001)     ;
(PID.TID 0000.0001) useStrainTensionVisc= /* Use StrainTension Form of Viscous Operator flag*/
(PID.TID 0000.0001)                   F
(PID.TID 0000.0001)     ;
(PID.TID 0000.0001) useAreaViscLength = /* Use area for visc length instead of geom. mean*/
(PID.TID 0000.0001)                   F
(PID.TID 0000.0001)     ;
(PID.TID 0000.0001) viscC2leith = /* Leith harmonic visc. factor (on grad(vort),non-dim.) */
(PID.TID 0000.0001)                 0.000000000000000E+00
(PID.TID 0000.0001)     ;
(PID.TID 0000.0001) viscC2leithD = /* Leith harmonic viscosity factor (on grad(div),non-dim.)*/
(PID.TID 0000.0001)                 0.000000000000000E+00
(PID.TID 0000.0001)     ;
(PID.TID 0000.0001) viscC2smag = /* Smagorinsky harmonic viscosity factor (non-dim.) */
(PID.TID 0000.0001)                 0.000000000000000E+00
(PID.TID 0000.0001)     ;
(PID.TID 0000.0001) viscA4  =   /* Lateral biharmonic viscosity ( m^4/s ) */
(PID.TID 0000.0001)                 1.000000000000000E+08
(PID.TID 0000.0001)     ;
(PID.TID 0000.0001) viscA4Max = /* Maximum biharmonic viscosity ( m^2/s ) */
(PID.TID 0000.0001)                 1.000000000000000E+21
(PID.TID 0000.0001)     ;
(PID.TID 0000.0001) viscA4Grid = /* Grid dependent biharmonic viscosity ( non-dim. ) */
(PID.TID 0000.0001)                 0.000000000000000E+00
(PID.TID 0000.0001)     ;
(PID.TID 0000.0001) viscC4leith = /* Leith biharm viscosity factor (on grad(vort), non-dim.)*/
(PID.TID 0000.0001)                 0.000000000000000E+00
(PID.TID 0000.0001)     ;
(PID.TID 0000.0001) viscC4leithD = /* Leith biharm viscosity factor (on grad(div), non-dim.) */
(PID.TID 0000.0001)                 0.000000000000000E+00
(PID.TID 0000.0001)     ;
(PID.TID 0000.0001) viscC4Smag = /* Smagorinsky biharm viscosity factor (non-dim) */
(PID.TID 0000.0001)                 0.000000000000000E+00
(PID.TID 0000.0001)     ;
(PID.TID 0000.0001) no_slip_sides =  /* Viscous BCs: No-slip sides */
(PID.TID 0000.0001)                   F
(PID.TID 0000.0001)     ;
(PID.TID 0000.0001) sideDragFactor = /* side-drag scaling factor (non-dim) */
(PID.TID 0000.0001)                 2.000000000000000E+00
(PID.TID 0000.0001)     ;
(PID.TID 0000.0001) viscArNr = /* vertical profile of vertical viscosity ( m^2/s )*/
(PID.TID 0000.0001)     8 @  1.000000000000000E-03              /* K =  1:  8 */
(PID.TID 0000.0001)     ;
(PID.TID 0000.0001) no_slip_bottom =  /* Viscous BCs: No-slip bottom */
(PID.TID 0000.0001)                   F
(PID.TID 0000.0001)     ;
(PID.TID 0000.0001) bottomDragLinear = /* linear bottom-drag coefficient ( m/s ) */
(PID.TID 0000.0001)                 0.000000000000000E+00
(PID.TID 0000.0001)     ;
(PID.TID 0000.0001) bottomDragQuadratic = /* quadratic bottom-drag coefficient (-) */
(PID.TID 0000.0001)                 0.000000000000000E+00
(PID.TID 0000.0001)     ;
(PID.TID 0000.0001) diffKhT =   /* Laplacian diffusion of heat laterally ( m^2/s ) */
(PID.TID 0000.0001)                 1.000000000000000E+03
(PID.TID 0000.0001)     ;
(PID.TID 0000.0001) diffK4T =   /* Biharmonic diffusion of heat laterally ( m^4/s ) */
(PID.TID 0000.0001)                 0.000000000000000E+00
(PID.TID 0000.0001)     ;
(PID.TID 0000.0001) diffKhS =   /* Laplacian diffusion of salt laterally ( m^2/s ) */
(PID.TID 0000.0001)                 1.000000000000000E+03
(PID.TID 0000.0001)     ;
(PID.TID 0000.0001) diffK4S =   /* Biharmonic diffusion of salt laterally ( m^4/s ) */
(PID.TID 0000.0001)                 0.000000000000000E+00
(PID.TID 0000.0001)     ;
(PID.TID 0000.0001) diffKrNrT = /* vertical profile of vertical diffusion of Temp ( m^2/s )*/
(PID.TID 0000.0001)     8 @  1.000000000000000E-05              /* K =  1:  8 */
(PID.TID 0000.0001)     ;
(PID.TID 0000.0001) diffKrNrS = /* vertical profile of vertical diffusion of Salt ( m^2/s )*/
(PID.TID 0000.0001)     8 @  1.000000000000000E-05              /* K =  1:  8 */
(PID.TID 0000.0001)     ;
(PID.TID 0000.0001) diffKrBL79surf = /* Surface diffusion for Bryan and Lewis 79 ( m^2/s ) */
(PID.TID 0000.0001)                 0.000000000000000E+00
(PID.TID 0000.0001)     ;
(PID.TID 0000.0001) diffKrBL79deep = /* Deep diffusion for Bryan and Lewis 1979 ( m^2/s ) */
(PID.TID 0000.0001)                 0.000000000000000E+00
(PID.TID 0000.0001)     ;
(PID.TID 0000.0001) diffKrBL79scl = /* Depth scale for Bryan and Lewis 1979 ( m ) */
(PID.TID 0000.0001)                 2.000000000000000E+02
(PID.TID 0000.0001)     ;
(PID.TID 0000.0001) diffKrBL79Ho = /* Turning depth for Bryan and Lewis 1979 ( m ) */
(PID.TID 0000.0001)                -2.000000000000000E+03
(PID.TID 0000.0001)     ;
(PID.TID 0000.0001) ivdc_kappa = /* Implicit Vertical Diffusivity for Convection ( m^2/s) */
(PID.TID 0000.0001)                 0.000000000000000E+00
(PID.TID 0000.0001)     ;
(PID.TID 0000.0001) hMixCriteria=  /* Criteria for mixed-layer diagnostic */
(PID.TID 0000.0001)                -8.000000000000000E-01
(PID.TID 0000.0001)     ;
(PID.TID 0000.0001) dRhoSmall =  /* Parameter for mixed-layer diagnostic */
(PID.TID 0000.0001)                 1.000000000000000E-06
(PID.TID 0000.0001)     ;
(PID.TID 0000.0001) hMixSmooth=  /* Smoothing parameter for mixed-layer diagnostic */
(PID.TID 0000.0001)                 0.000000000000000E+00
(PID.TID 0000.0001)     ;
(PID.TID 0000.0001) eosType =  /* Type of Equation of State */
(PID.TID 0000.0001)               'LINEAR'
(PID.TID 0000.0001)     ;
(PID.TID 0000.0001) tAlpha =   /* Linear EOS thermal expansion coefficient ( 1/oC ) */
(PID.TID 0000.0001)                 2.000000000000000E-04
(PID.TID 0000.0001)     ;
(PID.TID 0000.0001) sBeta =   /* Linear EOS haline contraction coefficient ( 1/psu ) */
(PID.TID 0000.0001)                 0.000000000000000E+00
(PID.TID 0000.0001)     ;
(PID.TID 0000.0001) rhonil =   /* Reference density ( kg/m^3 ) */
(PID.TID 0000.0001)                 9.998000000000000E+02
(PID.TID 0000.0001)     ;
(PID.TID 0000.0001) rhoConst =   /* Reference density ( kg/m^3 ) */
(PID.TID 0000.0001)                 9.998000000000000E+02
(PID.TID 0000.0001)     ;
(PID.TID 0000.0001) rhoFacC = /* normalized Reference density @ cell-Center (-) */
(PID.TID 0000.0001)     8 @  1.000000000000000E+00              /* K =  1:  8 */
(PID.TID 0000.0001)     ;
(PID.TID 0000.0001) rhoFacF = /* normalized Reference density @ W-Interface (-) */
(PID.TID 0000.0001)     9 @  1.000000000000000E+00              /* K =  1:  9 */
(PID.TID 0000.0001)     ;
(PID.TID 0000.0001) rhoConstFresh =   /* Reference density ( kg/m^3 ) */
(PID.TID 0000.0001)                 9.998000000000000E+02
(PID.TID 0000.0001)     ;
(PID.TID 0000.0001) gravity =   /* Gravitational acceleration ( m/s^2 ) */
(PID.TID 0000.0001)                 9.810000000000000E+00
(PID.TID 0000.0001)     ;
(PID.TID 0000.0001) gBaro =   /* Barotropic gravity ( m/s^2 ) */
(PID.TID 0000.0001)                 9.810000000000000E+00
(PID.TID 0000.0001)     ;
(PID.TID 0000.0001) rotationPeriod =   /* Rotation Period ( s ) */
(PID.TID 0000.0001)                 8.616400000000000E+04
(PID.TID 0000.0001)     ;
(PID.TID 0000.0001) omega =   /* Angular velocity ( rad/s ) */
(PID.TID 0000.0001)                 7.292123516990375E-05
(PID.TID 0000.0001)     ;
(PID.TID 0000.0001) f0 =   /* Reference coriolis parameter ( 1/s ) */
(PID.TID 0000.0001)                 1.000000000000000E-04
(PID.TID 0000.0001)     ;
(PID.TID 0000.0001) beta =   /* Beta ( 1/(m.s) ) */
(PID.TID 0000.0001)                 0.000000000000000E+00
(PID.TID 0000.0001)     ;
(PID.TID 0000.0001) fPrime =   /* Second coriolis parameter ( 1/s ) */
(PID.TID 0000.0001)                 0.000000000000000E+00
(PID.TID 0000.0001)     ;
(PID.TID 0000.0001) rigidLid =   /* Rigid lid on/off flag */
(PID.TID 0000.0001)                   F
(PID.TID 0000.0001)     ;
(PID.TID 0000.0001) implicitFreeSurface =   /* Implicit free surface on/off flag */
(PID.TID 0000.0001)                   T
(PID.TID 0000.0001)     ;
(PID.TID 0000.0001) freeSurfFac =   /* Implicit free surface factor */
(PID.TID 0000.0001)                 1.000000000000000E+00
(PID.TID 0000.0001)     ;
(PID.TID 0000.0001) implicSurfPress =  /* Surface Pressure implicit factor (0-1)*/
(PID.TID 0000.0001)                 1.000000000000000E+00
(PID.TID 0000.0001)     ;
(PID.TID 0000.0001) implicDiv2Dflow =  /* Barot. Flow Div. implicit factor (0-1)*/
(PID.TID 0000.0001)                 1.000000000000000E+00
(PID.TID 0000.0001)     ;
(PID.TID 0000.0001) exactConserv =  /* Exact Volume Conservation on/off flag*/
(PID.TID 0000.0001)                   T
(PID.TID 0000.0001)     ;
(PID.TID 0000.0001) linFSConserveTr = /* Tracer correction for Lin Free Surface on/off flag*/
(PID.TID 0000.0001)                   F
(PID.TID 0000.0001)     ;
(PID.TID 0000.0001) uniformLin_PhiSurf = /* use uniform Bo_surf on/off flag*/
(PID.TID 0000.0001)                   T
(PID.TID 0000.0001)     ;
(PID.TID 0000.0001) hFacMin =   /* minimum partial cell factor (hFac) */
(PID.TID 0000.0001)                 2.000000000000000E-01
(PID.TID 0000.0001)     ;
(PID.TID 0000.0001) hFacMinDr = /* minimum partial cell thickness ( m) */
(PID.TID 0000.0001)                 2.000000000000000E-01
(PID.TID 0000.0001)     ;
(PID.TID 0000.0001) nonlinFreeSurf = /* Non-linear Free Surf. options (-1,0,1,2,3)*/
(PID.TID 0000.0001)                       4
(PID.TID 0000.0001)      -1,0= Off ; 1,2,3= On, 2=+rescale gU,gV, 3=+update cg2d solv.
(PID.TID 0000.0001)     ;
(PID.TID 0000.0001) hFacInf =   /* lower threshold for hFac (nonlinFreeSurf only)*/
(PID.TID 0000.0001)                 2.000000000000000E-01
(PID.TID 0000.0001)     ;
(PID.TID 0000.0001) hFacSup =   /* upper threshold for hFac (nonlinFreeSurf only)*/
(PID.TID 0000.0001)                 2.000000000000000E+00
(PID.TID 0000.0001)     ;
(PID.TID 0000.0001) select_rStar = /* r* Vertical coord. options (=0 r coord.; >0 uses r*)*/
(PID.TID 0000.0001)                       2
(PID.TID 0000.0001)     ;
(PID.TID 0000.0001) selectAddFluid = /* option for mass source/sink of fluid (=0: off) */
(PID.TID 0000.0001)                       0
(PID.TID 0000.0001)     ;
(PID.TID 0000.0001) useRealFreshWaterFlux = /* Real Fresh Water Flux on/off flag*/
(PID.TID 0000.0001)                   F
(PID.TID 0000.0001)     ;
(PID.TID 0000.0001) temp_EvPrRn = /* Temp. of Evap/Prec/R (UNSET=use local T)(oC)*/
(PID.TID 0000.0001)                 1.234567000000000E+05
(PID.TID 0000.0001)     ;
(PID.TID 0000.0001) salt_EvPrRn = /* Salin. of Evap/Prec/R (UNSET=use local S)(psu)*/
(PID.TID 0000.0001)                 0.000000000000000E+00
(PID.TID 0000.0001)     ;
(PID.TID 0000.0001) temp_addMass = /* Temp. of addMass array (UNSET=use local T)(oC)*/
(PID.TID 0000.0001)                 1.234567000000000E+05
(PID.TID 0000.0001)     ;
(PID.TID 0000.0001) salt_addMass = /* Salin. of addMass array (UNSET=use local S)(psu)*/
(PID.TID 0000.0001)                 0.000000000000000E+00
(PID.TID 0000.0001)     ;
(PID.TID 0000.0001) convertFW2Salt = /* convert F.W. Flux to Salt Flux (-1=use local S)(psu)*/
(PID.TID 0000.0001)                 3.500000000000000E+01
(PID.TID 0000.0001)     ;
(PID.TID 0000.0001) use3Dsolver = /* use 3-D pressure solver on/off flag */
(PID.TID 0000.0001)                   F
(PID.TID 0000.0001)     ;
(PID.TID 0000.0001) nonHydrostatic =  /* Non-Hydrostatic on/off flag */
(PID.TID 0000.0001)                   F
(PID.TID 0000.0001)     ;
(PID.TID 0000.0001) nh_Am2 = /* Non-Hydrostatic terms scaling factor */
(PID.TID 0000.0001)                 1.000000000000000E+00
(PID.TID 0000.0001)     ;
(PID.TID 0000.0001) implicitNHPress = /* Non-Hyd Pressure implicit factor (0-1)*/
(PID.TID 0000.0001)                 1.000000000000000E+00
(PID.TID 0000.0001)     ;
(PID.TID 0000.0001) selectNHfreeSurf = /* Non-Hyd (free-)Surface option */
(PID.TID 0000.0001)                       0
(PID.TID 0000.0001)     ;
(PID.TID 0000.0001) quasiHydrostatic = /* Quasi-Hydrostatic on/off flag */
(PID.TID 0000.0001)                   F
(PID.TID 0000.0001)     ;
(PID.TID 0000.0001) momStepping =  /* Momentum equation on/off flag */
(PID.TID 0000.0001)                   T
(PID.TID 0000.0001)     ;
(PID.TID 0000.0001) vectorInvariantMomentum= /* Vector-Invariant Momentum on/off */
(PID.TID 0000.0001)                   T
(PID.TID 0000.0001)     ;
(PID.TID 0000.0001) momAdvection =  /* Momentum advection on/off flag */
(PID.TID 0000.0001)                   T
(PID.TID 0000.0001)     ;
(PID.TID 0000.0001) momViscosity =  /* Momentum viscosity on/off flag */
(PID.TID 0000.0001)                   T
(PID.TID 0000.0001)     ;
(PID.TID 0000.0001) momImplVertAdv= /* Momentum implicit vert. advection on/off*/
(PID.TID 0000.0001)                   F
(PID.TID 0000.0001)     ;
(PID.TID 0000.0001) implicitViscosity = /* Implicit viscosity on/off flag */
(PID.TID 0000.0001)                   F
(PID.TID 0000.0001)     ;
(PID.TID 0000.0001) metricTerms =  /* metric-Terms on/off flag */
(PID.TID 0000.0001)                   F
(PID.TID 0000.0001)     ;
(PID.TID 0000.0001) useNHMTerms = /* Non-Hydrostatic Metric-Terms on/off */
(PID.TID 0000.0001)                   F
(PID.TID 0000.0001)     ;
(PID.TID 0000.0001) selectCoriMap = /* Coriolis Map options (0,1,2,3)*/
(PID.TID 0000.0001)                       1
(PID.TID 0000.0001)     0= f-Plane ; 1= Beta-Plane ; 2= Spherical ; 3= read from file
(PID.TID 0000.0001)     ;
(PID.TID 0000.0001) use3dCoriolis = /* 3-D Coriolis on/off flag */
(PID.TID 0000.0001)                   F
(PID.TID 0000.0001)     ;
(PID.TID 0000.0001) useCoriolis =  /* Coriolis on/off flag */
(PID.TID 0000.0001)                   T
(PID.TID 0000.0001)     ;
(PID.TID 0000.0001) useCDscheme =  /* CD scheme on/off flag */
(PID.TID 0000.0001)                   F
(PID.TID 0000.0001)     ;
(PID.TID 0000.0001) useEnergyConservingCoriolis= /* Flx-Form Coriolis scheme flag */
(PID.TID 0000.0001)                   F
(PID.TID 0000.0001)     ;
(PID.TID 0000.0001) useJamartWetPoints= /* Coriolis WetPoints method flag */
(PID.TID 0000.0001)                   F
(PID.TID 0000.0001)     ;
(PID.TID 0000.0001) useJamartMomAdv= /* V.I Non-linear terms Jamart flag */
(PID.TID 0000.0001)                   F
(PID.TID 0000.0001)     ;
(PID.TID 0000.0001) useAbsVorticity= /* V.I Works with f+zeta in Coriolis */
(PID.TID 0000.0001)                   F
(PID.TID 0000.0001)     ;
(PID.TID 0000.0001) selectVortScheme= /* V.I Scheme selector for Vorticity-Term */
(PID.TID 0000.0001)                       3
(PID.TID 0000.0001)    = 0 : enstrophy (Shallow-Water Eq.) conserving scheme by Sadourny, JAS 75
(PID.TID 0000.0001)    = 1 : same as 0 with modified hFac
(PID.TID 0000.0001)    = 2 : energy conserving scheme (used by Sadourny in JAS 75 paper)
(PID.TID 0000.0001)    = 3 : energy (general) and enstrophy (2D, nonDiv.) conserving scheme
(PID.TID 0000.0001)          from Sadourny (Burridge & Haseler, ECMWF Rep.4, 1977)
(PID.TID 0000.0001)     ;
(PID.TID 0000.0001) upwindVorticity= /* V.I Upwind bias vorticity flag */
(PID.TID 0000.0001)                   F
(PID.TID 0000.0001)     ;
(PID.TID 0000.0001) highOrderVorticity= /* V.I High order vort. advect. flag */
(PID.TID 0000.0001)                   F
(PID.TID 0000.0001)     ;
(PID.TID 0000.0001) upwindShear= /* V.I Upwind vertical Shear advection flag */
(PID.TID 0000.0001)                   F
(PID.TID 0000.0001)     ;
(PID.TID 0000.0001) selectKEscheme= /* V.I Kinetic Energy scheme selector */
(PID.TID 0000.0001)                       2
(PID.TID 0000.0001)     ;
(PID.TID 0000.0001) momForcing =  /* Momentum forcing on/off flag */
(PID.TID 0000.0001)                   T
(PID.TID 0000.0001)     ;
(PID.TID 0000.0001) momPressureForcing =  /* Momentum pressure term on/off flag */
(PID.TID 0000.0001)                   T
(PID.TID 0000.0001)     ;
(PID.TID 0000.0001) implicitIntGravWave= /* Implicit Internal Gravity Wave flag */
(PID.TID 0000.0001)                   F
(PID.TID 0000.0001)     ;
(PID.TID 0000.0001) staggerTimeStep =   /* Stagger time stepping on/off flag */
(PID.TID 0000.0001)                   F
(PID.TID 0000.0001)     ;
(PID.TID 0000.0001) multiDimAdvection =   /* enable/disable Multi-Dim Advection */
(PID.TID 0000.0001)                   T
(PID.TID 0000.0001)     ;
(PID.TID 0000.0001) useMultiDimAdvec =   /* Multi-Dim Advection is/is-not used */
(PID.TID 0000.0001)                   F
(PID.TID 0000.0001)     ;
(PID.TID 0000.0001) implicitDiffusion = /* Implicit Diffusion on/off flag */
(PID.TID 0000.0001)                   F
(PID.TID 0000.0001)     ;
(PID.TID 0000.0001) tempStepping =  /* Temperature equation on/off flag */
(PID.TID 0000.0001)                   T
(PID.TID 0000.0001)     ;
(PID.TID 0000.0001) tempAdvection=  /* Temperature advection on/off flag */
(PID.TID 0000.0001)                   T
(PID.TID 0000.0001)     ;
(PID.TID 0000.0001) tempImplVertAdv = /* Temp. implicit vert. advection on/off */
(PID.TID 0000.0001)                   F
(PID.TID 0000.0001)     ;
(PID.TID 0000.0001) tempForcing  =  /* Temperature forcing on/off flag */
(PID.TID 0000.0001)                   T
(PID.TID 0000.0001)     ;
(PID.TID 0000.0001) tempIsActiveTr = /* Temp. is a dynamically Active Tracer */
(PID.TID 0000.0001)                   T
(PID.TID 0000.0001)     ;
(PID.TID 0000.0001) saltStepping =  /* Salinity equation on/off flag */
(PID.TID 0000.0001)                   T
(PID.TID 0000.0001)     ;
(PID.TID 0000.0001) saltAdvection=  /* Salinity advection on/off flag */
(PID.TID 0000.0001)                   T
(PID.TID 0000.0001)     ;
(PID.TID 0000.0001) saltImplVertAdv = /* Sali. implicit vert. advection on/off */
(PID.TID 0000.0001)                   F
(PID.TID 0000.0001)     ;
(PID.TID 0000.0001) saltForcing  =  /* Salinity forcing on/off flag */
(PID.TID 0000.0001)                   T
(PID.TID 0000.0001)     ;
(PID.TID 0000.0001) saltIsActiveTr = /* Salt  is a dynamically Active Tracer */
(PID.TID 0000.0001)                   F
(PID.TID 0000.0001)     ;
(PID.TID 0000.0001)  readBinaryPrec = /* Precision used for reading binary files */
(PID.TID 0000.0001)                      64
(PID.TID 0000.0001)     ;
(PID.TID 0000.0001) writeBinaryPrec = /* Precision used for writing binary files */
(PID.TID 0000.0001)                      32
(PID.TID 0000.0001)     ;
(PID.TID 0000.0001)  globalFiles = /* write "global" (=not per tile) files */
(PID.TID 0000.0001)                   F
(PID.TID 0000.0001)     ;
(PID.TID 0000.0001)  useSingleCpuIO = /* only master MPI process does I/O */
(PID.TID 0000.0001)                   F
(PID.TID 0000.0001)     ;
(PID.TID 0000.0001) /* debLev[*]  : level of debug & auxiliary message printing */
(PID.TID 0000.0001) debLevZero =  0 ; /* level of disabled aux. msg printing */
(PID.TID 0000.0001)    debLevA =  1 ; /* level of minimum  aux. msg printing */
(PID.TID 0000.0001)    debLevB =  2 ; /* level of low aux. print (report read-file opening)*/
(PID.TID 0000.0001)    debLevC =  3 ; /* level of moderate debug prt (most pkgs debug msg) */
(PID.TID 0000.0001)    debLevD =  4 ; /* level of enhanced debug prt (add DEBUG_STATS prt) */
(PID.TID 0000.0001)    debLevE =  5 ; /* level of extensive debug printing */
(PID.TID 0000.0001) debugLevel =  /* select debug printing level */
(PID.TID 0000.0001)                       2
(PID.TID 0000.0001)     ;
(PID.TID 0000.0001) //
(PID.TID 0000.0001) // Elliptic solver(s) paramters ( PARM02 in namelist )
(PID.TID 0000.0001) //
(PID.TID 0000.0001) cg2dMaxIters =   /* Upper limit on 2d con. grad iterations  */
(PID.TID 0000.0001)                    1000
(PID.TID 0000.0001)     ;
(PID.TID 0000.0001) cg2dChkResFreq =   /* 2d con. grad convergence test frequency */
(PID.TID 0000.0001)                       1
(PID.TID 0000.0001)     ;
(PID.TID 0000.0001) cg2dTargetResidual =   /* 2d con. grad target residual  */
(PID.TID 0000.0001)                 1.000000000000000E-13
(PID.TID 0000.0001)     ;
(PID.TID 0000.0001) cg2dTargetResWunit =   /* CG2d target residual [W units] */
(PID.TID 0000.0001)                -1.000000000000000E+00
(PID.TID 0000.0001)     ;
(PID.TID 0000.0001) cg2dPreCondFreq =   /* Freq. for updating cg2d preconditioner */
(PID.TID 0000.0001)                       1
(PID.TID 0000.0001)     ;
(PID.TID 0000.0001) useSRCGSolver =  /* use single reduction CG solver(s) */
(PID.TID 0000.0001)                   F
(PID.TID 0000.0001)     ;
(PID.TID 0000.0001) printResidualFreq = /* Freq. for printing CG residual */
(PID.TID 0000.0001)                       0
(PID.TID 0000.0001)     ;
(PID.TID 0000.0001) //
(PID.TID 0000.0001) // Time stepping paramters ( PARM03 in namelist )
(PID.TID 0000.0001) //
(PID.TID 0000.0001) deltaTmom =   /* Momentum equation timestep ( s ) */
(PID.TID 0000.0001)                 6.000000000000000E+02
(PID.TID 0000.0001)     ;
(PID.TID 0000.0001) deltaTfreesurf = /* FreeSurface equation timestep ( s ) */
(PID.TID 0000.0001)                 6.000000000000000E+02
(PID.TID 0000.0001)     ;
(PID.TID 0000.0001) dTtracerLev =  /* Tracer equation timestep ( s ) */
(PID.TID 0000.0001)     8 @  6.000000000000000E+02              /* K =  1:  8 */
(PID.TID 0000.0001)     ;
(PID.TID 0000.0001) deltaTClock  =   /* Model clock timestep ( s ) */
(PID.TID 0000.0001)                 6.000000000000000E+02
(PID.TID 0000.0001)     ;
(PID.TID 0000.0001) cAdjFreq =   /* Convective adjustment interval ( s ) */
(PID.TID 0000.0001)                 0.000000000000000E+00
(PID.TID 0000.0001)     ;
(PID.TID 0000.0001) momForcingOutAB = /* =1: take Momentum Forcing out of Adams-Bash. stepping */
(PID.TID 0000.0001)                       0
(PID.TID 0000.0001)     ;
(PID.TID 0000.0001) tracForcingOutAB = /* =1: take T,S,pTr Forcing out of Adams-Bash. stepping */
(PID.TID 0000.0001)                       0
(PID.TID 0000.0001)     ;
(PID.TID 0000.0001) momDissip_In_AB = /* put Dissipation Tendency in Adams-Bash. stepping */
(PID.TID 0000.0001)                   F
(PID.TID 0000.0001)     ;
(PID.TID 0000.0001) doAB_onGtGs = /* apply AB on Tendencies (rather than on T,S)*/
(PID.TID 0000.0001)                   T
(PID.TID 0000.0001)     ;
(PID.TID 0000.0001) abEps =   /* Adams-Bashforth-2 stabilizing weight */
(PID.TID 0000.0001)                 1.000000000000000E-01
(PID.TID 0000.0001)     ;
(PID.TID 0000.0001) pickupStrictlyMatch= /* stop if pickup do not strictly match */
(PID.TID 0000.0001)                   T
(PID.TID 0000.0001)     ;
(PID.TID 0000.0001) nIter0   =   /* Run starting timestep number */
(PID.TID 0000.0001)                       0
(PID.TID 0000.0001)     ;
(PID.TID 0000.0001) nTimeSteps = /* Number of timesteps */
(PID.TID 0000.0001)                      10
(PID.TID 0000.0001)     ;
(PID.TID 0000.0001) nEndIter =   /* Run ending timestep number */
(PID.TID 0000.0001)                      10
(PID.TID 0000.0001)     ;
(PID.TID 0000.0001) baseTime =   /* Model base time ( s ) */
(PID.TID 0000.0001)                 1.080000000000000E+04
(PID.TID 0000.0001)     ;
(PID.TID 0000.0001) startTime =  /* Run start time ( s ) */
(PID.TID 0000.0001)                 1.080000000000000E+04
(PID.TID 0000.0001)     ;
(PID.TID 0000.0001) endTime  =   /* Integration ending time ( s ) */
(PID.TID 0000.0001)                 1.680000000000000E+04
(PID.TID 0000.0001)     ;
(PID.TID 0000.0001) pChkPtFreq = /* Permanent restart/pickup file interval ( s ) */
(PID.TID 0000.0001)                 0.000000000000000E+00
(PID.TID 0000.0001)     ;
(PID.TID 0000.0001) chkPtFreq  = /* Rolling restart/pickup file interval ( s ) */
(PID.TID 0000.0001)                 0.000000000000000E+00
(PID.TID 0000.0001)     ;
(PID.TID 0000.0001) pickup_write_mdsio =   /* Model IO flag. */
(PID.TID 0000.0001)                   T
(PID.TID 0000.0001)     ;
(PID.TID 0000.0001) pickup_read_mdsio =   /* Model IO flag. */
(PID.TID 0000.0001)                   T
(PID.TID 0000.0001)     ;
(PID.TID 0000.0001) pickup_write_immed =   /* Model IO flag. */
(PID.TID 0000.0001)                   F
(PID.TID 0000.0001)     ;
(PID.TID 0000.0001) writePickupAtEnd =   /* Model IO flag. */
(PID.TID 0000.0001)                   T
(PID.TID 0000.0001)     ;
(PID.TID 0000.0001) dumpFreq =   /* Model state write out interval ( s ). */
(PID.TID 0000.0001)                 1.080000000000000E+04
(PID.TID 0000.0001)     ;
(PID.TID 0000.0001) dumpInitAndLast= /* write out Initial & Last iter. model state */
(PID.TID 0000.0001)                   T
(PID.TID 0000.0001)     ;
(PID.TID 0000.0001) snapshot_mdsio =   /* Model IO flag. */
(PID.TID 0000.0001)                   T
(PID.TID 0000.0001)     ;
(PID.TID 0000.0001) monitorFreq =   /* Monitor output interval ( s ). */
(PID.TID 0000.0001)                 1.000000000000000E+00
(PID.TID 0000.0001)     ;
(PID.TID 0000.0001) monitorSelect = /* select group of variables to monitor */
(PID.TID 0000.0001)                       2
(PID.TID 0000.0001)     ;
(PID.TID 0000.0001) monitor_stdio =   /* Model IO flag. */
(PID.TID 0000.0001)                   T
(PID.TID 0000.0001)     ;
(PID.TID 0000.0001) externForcingPeriod =   /* forcing period (s) */
(PID.TID 0000.0001)                 2.160000000000000E+04
(PID.TID 0000.0001)     ;
(PID.TID 0000.0001) externForcingCycle =   /* period of the cyle (s). */
(PID.TID 0000.0001)                 4.320000000000000E+04
(PID.TID 0000.0001)     ;
(PID.TID 0000.0001) tauThetaClimRelax =   /* relaxation time scale (s) */
(PID.TID 0000.0001)                 0.000000000000000E+00
(PID.TID 0000.0001)     ;
(PID.TID 0000.0001) tauSaltClimRelax =   /* relaxation time scale (s) */
(PID.TID 0000.0001)                 0.000000000000000E+00
(PID.TID 0000.0001)     ;
(PID.TID 0000.0001) latBandClimRelax =   /* max. Lat. where relaxation */
(PID.TID 0000.0001)                 6.300000000000000E+05
(PID.TID 0000.0001)     ;
(PID.TID 0000.0001) //
(PID.TID 0000.0001) // Gridding paramters ( PARM04 in namelist )
(PID.TID 0000.0001) //
(PID.TID 0000.0001) usingCartesianGrid = /* Cartesian coordinates flag ( True/False ) */
(PID.TID 0000.0001)                   T
(PID.TID 0000.0001)     ;
(PID.TID 0000.0001) usingCylindricalGrid = /* Cylindrical coordinates flag ( True/False ) */
(PID.TID 0000.0001)                   F
(PID.TID 0000.0001)     ;
(PID.TID 0000.0001) usingSphericalPolarGrid = /* Spherical coordinates flag ( True/False ) */
(PID.TID 0000.0001)                   F
(PID.TID 0000.0001)     ;
(PID.TID 0000.0001) usingCurvilinearGrid = /* Curvilinear coordinates flag ( True/False ) */
(PID.TID 0000.0001)                   F
(PID.TID 0000.0001)     ;
(PID.TID 0000.0001) selectSigmaCoord = /* Hybrid-Sigma Vert. Coordinate option */
(PID.TID 0000.0001)                       0
(PID.TID 0000.0001)     ;
(PID.TID 0000.0001) Ro_SeaLevel = /* r(1) ( units of r ==  m ) */
(PID.TID 0000.0001)                 0.000000000000000E+00
(PID.TID 0000.0001)     ;
(PID.TID 0000.0001) rSigmaBnd = /* r/sigma transition ( units of r ==  m ) */
(PID.TID 0000.0001)                 1.234567000000000E+05
(PID.TID 0000.0001)     ;
(PID.TID 0000.0001) rkSign =   /* index orientation relative to vertical coordinate */
(PID.TID 0000.0001)                -1.000000000000000E+00
(PID.TID 0000.0001)     ;
(PID.TID 0000.0001) gravitySign = /* gravity orientation relative to vertical coordinate */
(PID.TID 0000.0001)                -1.000000000000000E+00
(PID.TID 0000.0001)     ;
(PID.TID 0000.0001) mass2rUnit = /* convert mass per unit area [kg/m2] to r-units [m] */
(PID.TID 0000.0001)                 1.000200040008002E-03
(PID.TID 0000.0001)     ;
(PID.TID 0000.0001) rUnit2mass = /* convert r-units [m] to mass per unit area [kg/m2] */
(PID.TID 0000.0001)                 9.998000000000000E+02
(PID.TID 0000.0001)     ;
(PID.TID 0000.0001) drC =   /* C spacing ( units of r ) */
(PID.TID 0000.0001)                 2.812500000000000E+02,      /* K =  1 */
(PID.TID 0000.0001)     7 @  5.625000000000000E+02              /* K =  2:  8 */
(PID.TID 0000.0001)     ;
(PID.TID 0000.0001) drF =   /* W spacing ( units of r ) */
(PID.TID 0000.0001)     8 @  5.625000000000000E+02              /* K =  1:  8 */
(PID.TID 0000.0001)     ;
(PID.TID 0000.0001) delX = /* U spacing ( m - cartesian, degrees - spherical ) */
(PID.TID 0000.0001)    80 @  5.000000000000000E+03              /* I =  1: 80 */
(PID.TID 0000.0001)     ;
(PID.TID 0000.0001) delY = /* V spacing ( m - cartesian, degrees - spherical ) */
(PID.TID 0000.0001)    42 @  5.000000000000000E+03              /* J =  1: 42 */
(PID.TID 0000.0001)     ;
(PID.TID 0000.0001) xgOrigin = /* X-axis origin of West  edge (cartesian: m, lat-lon: deg.) */
(PID.TID 0000.0001)                 0.000000000000000E+00
(PID.TID 0000.0001)     ;
(PID.TID 0000.0001) ygOrigin = /* Y-axis origin of South edge (cartesian: m, lat-lon: deg.) */
(PID.TID 0000.0001)                 0.000000000000000E+00
(PID.TID 0000.0001)     ;
(PID.TID 0000.0001) rSphere =  /* Radius ( ignored - cartesian, m - spherical ) */
(PID.TID 0000.0001)                 6.370000000000000E+06
(PID.TID 0000.0001)     ;
(PID.TID 0000.0001) deepAtmosphere = /* Deep/Shallow Atmosphere flag (True/False) */
(PID.TID 0000.0001)                   F
(PID.TID 0000.0001)     ;
(PID.TID 0000.0001) xC =  /* xC(:,1,:,1) : P-point X coord ( deg. or m if cartesian) */
(PID.TID 0000.0001)                 2.500000000000000E+03,      /* I =  1 */
(PID.TID 0000.0001)                 7.500000000000000E+03,      /* I =  2 */
(PID.TID 0000.0001)                 1.250000000000000E+04,      /* I =  3 */
(PID.TID 0000.0001)      . . .
(PID.TID 0000.0001)                 8.750000000000000E+04,      /* I = 18 */
(PID.TID 0000.0001)                 9.250000000000000E+04,      /* I = 19 */
(PID.TID 0000.0001)                 9.750000000000000E+04,      /* I = 20 */
(PID.TID 0000.0001)                 1.025000000000000E+05,      /* I = 21 */
(PID.TID 0000.0001)                 1.075000000000000E+05,      /* I = 22 */
(PID.TID 0000.0001)                 1.125000000000000E+05,      /* I = 23 */
(PID.TID 0000.0001)      . . .
(PID.TID 0000.0001)                 1.875000000000000E+05,      /* I = 38 */
(PID.TID 0000.0001)                 1.925000000000000E+05,      /* I = 39 */
(PID.TID 0000.0001)                 1.975000000000000E+05,      /* I = 40 */
(PID.TID 0000.0001)                 2.025000000000000E+05,      /* I = 41 */
(PID.TID 0000.0001)                 2.075000000000000E+05,      /* I = 42 */
(PID.TID 0000.0001)                 2.125000000000000E+05,      /* I = 43 */
(PID.TID 0000.0001)      . . .
(PID.TID 0000.0001)                 2.875000000000000E+05,      /* I = 58 */
(PID.TID 0000.0001)                 2.925000000000000E+05,      /* I = 59 */
(PID.TID 0000.0001)                 2.975000000000000E+05,      /* I = 60 */
(PID.TID 0000.0001)                 3.025000000000000E+05,      /* I = 61 */
(PID.TID 0000.0001)                 3.075000000000000E+05,      /* I = 62 */
(PID.TID 0000.0001)                 3.125000000000000E+05,      /* I = 63 */
(PID.TID 0000.0001)      . . .
(PID.TID 0000.0001)                 3.875000000000000E+05,      /* I = 78 */
(PID.TID 0000.0001)                 3.925000000000000E+05,      /* I = 79 */
(PID.TID 0000.0001)                 3.975000000000000E+05       /* I = 80 */
(PID.TID 0000.0001)     ;
(PID.TID 0000.0001) yC =  /* yC(1,:,1,:) : P-point Y coord ( deg. or m if cartesian) */
(PID.TID 0000.0001)                 2.500000000000000E+03,      /* J =  1 */
(PID.TID 0000.0001)                 7.500000000000000E+03,      /* J =  2 */
(PID.TID 0000.0001)                 1.250000000000000E+04,      /* J =  3 */
(PID.TID 0000.0001)                 1.750000000000000E+04,      /* J =  4 */
(PID.TID 0000.0001)                 2.250000000000000E+04,      /* J =  5 */
(PID.TID 0000.0001)                 2.750000000000000E+04,      /* J =  6 */
(PID.TID 0000.0001)                 3.250000000000000E+04,      /* J =  7 */
(PID.TID 0000.0001)                 3.750000000000000E+04,      /* J =  8 */
(PID.TID 0000.0001)                 4.250000000000000E+04,      /* J =  9 */
(PID.TID 0000.0001)                 4.750000000000000E+04,      /* J = 10 */
(PID.TID 0000.0001)                 5.250000000000000E+04,      /* J = 11 */
(PID.TID 0000.0001)                 5.750000000000000E+04,      /* J = 12 */
(PID.TID 0000.0001)                 6.250000000000000E+04,      /* J = 13 */
(PID.TID 0000.0001)                 6.750000000000000E+04,      /* J = 14 */
(PID.TID 0000.0001)                 7.250000000000000E+04,      /* J = 15 */
(PID.TID 0000.0001)                 7.750000000000000E+04,      /* J = 16 */
(PID.TID 0000.0001)                 8.250000000000000E+04,      /* J = 17 */
(PID.TID 0000.0001)                 8.750000000000000E+04,      /* J = 18 */
(PID.TID 0000.0001)                 9.250000000000000E+04,      /* J = 19 */
(PID.TID 0000.0001)                 9.750000000000000E+04,      /* J = 20 */
(PID.TID 0000.0001)                 1.025000000000000E+05,      /* J = 21 */
(PID.TID 0000.0001)                 1.075000000000000E+05,      /* J = 22 */
(PID.TID 0000.0001)                 1.125000000000000E+05,      /* J = 23 */
(PID.TID 0000.0001)                 1.175000000000000E+05,      /* J = 24 */
(PID.TID 0000.0001)                 1.225000000000000E+05,      /* J = 25 */
(PID.TID 0000.0001)                 1.275000000000000E+05,      /* J = 26 */
(PID.TID 0000.0001)                 1.325000000000000E+05,      /* J = 27 */
(PID.TID 0000.0001)                 1.375000000000000E+05,      /* J = 28 */
(PID.TID 0000.0001)                 1.425000000000000E+05,      /* J = 29 */
(PID.TID 0000.0001)                 1.475000000000000E+05,      /* J = 30 */
(PID.TID 0000.0001)                 1.525000000000000E+05,      /* J = 31 */
(PID.TID 0000.0001)                 1.575000000000000E+05,      /* J = 32 */
(PID.TID 0000.0001)                 1.625000000000000E+05,      /* J = 33 */
(PID.TID 0000.0001)                 1.675000000000000E+05,      /* J = 34 */
(PID.TID 0000.0001)                 1.725000000000000E+05,      /* J = 35 */
(PID.TID 0000.0001)                 1.775000000000000E+05,      /* J = 36 */
(PID.TID 0000.0001)                 1.825000000000000E+05,      /* J = 37 */
(PID.TID 0000.0001)                 1.875000000000000E+05,      /* J = 38 */
(PID.TID 0000.0001)                 1.925000000000000E+05,      /* J = 39 */
(PID.TID 0000.0001)                 1.975000000000000E+05,      /* J = 40 */
(PID.TID 0000.0001)                 2.025000000000000E+05,      /* J = 41 */
(PID.TID 0000.0001)                 2.075000000000000E+05       /* J = 42 */
(PID.TID 0000.0001)     ;
(PID.TID 0000.0001) rcoord = /* P-point R coordinate (  units of r ) */
(PID.TID 0000.0001)                -2.812500000000000E+02,      /* K =  1 */
(PID.TID 0000.0001)                -8.437500000000000E+02,      /* K =  2 */
(PID.TID 0000.0001)                -1.406250000000000E+03,      /* K =  3 */
(PID.TID 0000.0001)                -1.968750000000000E+03,      /* K =  4 */
(PID.TID 0000.0001)                -2.531250000000000E+03,      /* K =  5 */
(PID.TID 0000.0001)                -3.093750000000000E+03,      /* K =  6 */
(PID.TID 0000.0001)                -3.656250000000000E+03,      /* K =  7 */
(PID.TID 0000.0001)                -4.218750000000000E+03       /* K =  8 */
(PID.TID 0000.0001)     ;
(PID.TID 0000.0001) rF =   /* W-Interf. R coordinate (  units of r ) */
(PID.TID 0000.0001)                 0.000000000000000E+00,      /* K =  1 */
(PID.TID 0000.0001)                -5.625000000000000E+02,      /* K =  2 */
(PID.TID 0000.0001)                -1.125000000000000E+03,      /* K =  3 */
(PID.TID 0000.0001)                -1.687500000000000E+03,      /* K =  4 */
(PID.TID 0000.0001)                -2.250000000000000E+03,      /* K =  5 */
(PID.TID 0000.0001)                -2.812500000000000E+03,      /* K =  6 */
(PID.TID 0000.0001)                -3.375000000000000E+03,      /* K =  7 */
(PID.TID 0000.0001)                -3.937500000000000E+03,      /* K =  8 */
(PID.TID 0000.0001)                -4.500000000000000E+03       /* K =  9 */
(PID.TID 0000.0001)     ;
(PID.TID 0000.0001) deepFacC = /* deep-model grid factor @ cell-Center (-) */
(PID.TID 0000.0001)     8 @  1.000000000000000E+00              /* K =  1:  8 */
(PID.TID 0000.0001)     ;
(PID.TID 0000.0001) deepFacF = /* deep-model grid factor @ W-Interface (-) */
(PID.TID 0000.0001)     9 @  1.000000000000000E+00              /* K =  1:  9 */
(PID.TID 0000.0001)     ;
(PID.TID 0000.0001) rVel2wUnit = /* convert units: rVel -> wSpeed (=1 if z-coord)*/
(PID.TID 0000.0001)     9 @  1.000000000000000E+00              /* K =  1:  9 */
(PID.TID 0000.0001)     ;
(PID.TID 0000.0001) wUnit2rVel = /* convert units: wSpeed -> rVel (=1 if z-coord)*/
(PID.TID 0000.0001)     9 @  1.000000000000000E+00              /* K =  1:  9 */
(PID.TID 0000.0001)     ;
(PID.TID 0000.0001) dBdrRef = /* Vertical grad. of reference buoyancy [(m/s/r)^2] */
(PID.TID 0000.0001)                 0.000000000000000E+00,      /* K =  1 */
(PID.TID 0000.0001)                 6.944468479999999E-07,      /* K =  2 */
(PID.TID 0000.0001)                 6.944433600000000E-07,      /* K =  3 */
(PID.TID 0000.0001)                 6.944444064000000E-07,      /* K =  4 */
(PID.TID 0000.0001)                 6.944447552000002E-07,      /* K =  5 */
(PID.TID 0000.0001)                 6.944444064000000E-07,      /* K =  6 */
(PID.TID 0000.0001)                 6.944433600000000E-07,      /* K =  7 */
(PID.TID 0000.0001)                 6.944468479999999E-07       /* K =  8 */
(PID.TID 0000.0001)     ;
(PID.TID 0000.0001) rotateGrid = /* use rotated grid ( True/False ) */
(PID.TID 0000.0001)                   F
(PID.TID 0000.0001)     ;
(PID.TID 0000.0001) phiEuler = /* Euler angle, rotation about original z-coordinate [rad] */
(PID.TID 0000.0001)                 0.000000000000000E+00
(PID.TID 0000.0001)     ;
(PID.TID 0000.0001) thetaEuler = /* Euler angle, rotation about new x-coordinate [rad] */
(PID.TID 0000.0001)                 0.000000000000000E+00
(PID.TID 0000.0001)     ;
(PID.TID 0000.0001) psiEuler = /* Euler angle, rotation about new z-coordinate [rad] */
(PID.TID 0000.0001)                 0.000000000000000E+00
(PID.TID 0000.0001)     ;
(PID.TID 0000.0001) dxF =  /* dxF(:,1,:,1) ( units: m ) */
(PID.TID 0000.0001)    80 @  5.000000000000000E+03              /* I =  1: 80 */
(PID.TID 0000.0001)     ;
(PID.TID 0000.0001) dxF =  /* dxF(1,:,1,:) ( units: m ) */
(PID.TID 0000.0001)    42 @  5.000000000000000E+03              /* J =  1: 42 */
(PID.TID 0000.0001)     ;
(PID.TID 0000.0001) dyF =  /* dyF(:,1,:,1) ( units: m ) */
(PID.TID 0000.0001)    80 @  5.000000000000000E+03              /* I =  1: 80 */
(PID.TID 0000.0001)     ;
(PID.TID 0000.0001) dyF =  /* dyF(1,:,1,:) ( units: m ) */
(PID.TID 0000.0001)    42 @  5.000000000000000E+03              /* J =  1: 42 */
(PID.TID 0000.0001)     ;
(PID.TID 0000.0001) dxG =  /* dxG(:,1,:,1) ( units: m ) */
(PID.TID 0000.0001)    80 @  5.000000000000000E+03              /* I =  1: 80 */
(PID.TID 0000.0001)     ;
(PID.TID 0000.0001) dxG =  /* dxG(1,:,1,:) ( units: m ) */
(PID.TID 0000.0001)    42 @  5.000000000000000E+03              /* J =  1: 42 */
(PID.TID 0000.0001)     ;
(PID.TID 0000.0001) dyG =  /* dyG(:,1,:,1) ( units: m ) */
(PID.TID 0000.0001)    80 @  5.000000000000000E+03              /* I =  1: 80 */
(PID.TID 0000.0001)     ;
(PID.TID 0000.0001) dyG =  /* dyG(1,:,1,:) ( units: m ) */
(PID.TID 0000.0001)    42 @  5.000000000000000E+03              /* J =  1: 42 */
(PID.TID 0000.0001)     ;
(PID.TID 0000.0001) dxC =  /* dxC(:,1,:,1) ( units: m ) */
(PID.TID 0000.0001)    80 @  5.000000000000000E+03              /* I =  1: 80 */
(PID.TID 0000.0001)     ;
(PID.TID 0000.0001) dxC =  /* dxC(1,:,1,:) ( units: m ) */
(PID.TID 0000.0001)    42 @  5.000000000000000E+03              /* J =  1: 42 */
(PID.TID 0000.0001)     ;
(PID.TID 0000.0001) dyC =  /* dyC(:,1,:,1) ( units: m ) */
(PID.TID 0000.0001)    80 @  5.000000000000000E+03              /* I =  1: 80 */
(PID.TID 0000.0001)     ;
(PID.TID 0000.0001) dyC =  /* dyC(1,:,1,:) ( units: m ) */
(PID.TID 0000.0001)    42 @  5.000000000000000E+03              /* J =  1: 42 */
(PID.TID 0000.0001)     ;
(PID.TID 0000.0001) dxV =  /* dxV(:,1,:,1) ( units: m ) */
(PID.TID 0000.0001)    80 @  5.000000000000000E+03              /* I =  1: 80 */
(PID.TID 0000.0001)     ;
(PID.TID 0000.0001) dxV =  /* dxV(1,:,1,:) ( units: m ) */
(PID.TID 0000.0001)    42 @  5.000000000000000E+03              /* J =  1: 42 */
(PID.TID 0000.0001)     ;
(PID.TID 0000.0001) dyU =  /* dyU(:,1,:,1) ( units: m ) */
(PID.TID 0000.0001)    80 @  5.000000000000000E+03              /* I =  1: 80 */
(PID.TID 0000.0001)     ;
(PID.TID 0000.0001) dyU =  /* dyU(1,:,1,:) ( units: m ) */
(PID.TID 0000.0001)    42 @  5.000000000000000E+03              /* J =  1: 42 */
(PID.TID 0000.0001)     ;
(PID.TID 0000.0001) rA  =  /* rA (:,1,:,1) ( units: m^2 ) */
(PID.TID 0000.0001)    80 @  2.500000000000000E+07              /* I =  1: 80 */
(PID.TID 0000.0001)     ;
(PID.TID 0000.0001) rA  =  /* rA (1,:,1,:) ( units: m^2 ) */
(PID.TID 0000.0001)    42 @  2.500000000000000E+07              /* J =  1: 42 */
(PID.TID 0000.0001)     ;
(PID.TID 0000.0001) rAw =  /* rAw(:,1,:,1) ( units: m^2 ) */
(PID.TID 0000.0001)    80 @  2.500000000000000E+07              /* I =  1: 80 */
(PID.TID 0000.0001)     ;
(PID.TID 0000.0001) rAw =  /* rAw(1,:,1,:) ( units: m^2 ) */
(PID.TID 0000.0001)    42 @  2.500000000000000E+07              /* J =  1: 42 */
(PID.TID 0000.0001)     ;
(PID.TID 0000.0001) rAs =  /* rAs(:,1,:,1) ( units: m^2 ) */
(PID.TID 0000.0001)    80 @  2.500000000000000E+07              /* I =  1: 80 */
(PID.TID 0000.0001)     ;
(PID.TID 0000.0001) rAs =  /* rAs(1,:,1,:) ( units: m^2 ) */
(PID.TID 0000.0001)    42 @  2.500000000000000E+07              /* J =  1: 42 */
(PID.TID 0000.0001)     ;
(PID.TID 0000.0001) globalArea = /* Integrated horizontal Area (m^2) */
(PID.TID 0000.0001)                 7.800000000000000E+10
(PID.TID 0000.0001)     ;
(PID.TID 0000.0001) // =======================================================
(PID.TID 0000.0001) // End of Model config. summary
(PID.TID 0000.0001) // =======================================================
(PID.TID 0000.0001) 
(PID.TID 0000.0001) == Packages configuration : Check & print summary ==
(PID.TID 0000.0001) 
(PID.TID 0000.0001) OBCS_CHECK: #define ALLOW_OBCS
(PID.TID 0000.0001) OBCS_CHECK: start summary:
(PID.TID 0000.0001) useOBCSbalance = /* balance the flow through OB */
(PID.TID 0000.0001)                   F
(PID.TID 0000.0001)     ;
(PID.TID 0000.0001) OBCS_uvApplyFac = /* Factor to apply to U,V 2nd column/row */
(PID.TID 0000.0001)                 1.000000000000000E+00
(PID.TID 0000.0001)     ;
(PID.TID 0000.0001) OBCS_monitorFreq = /* monitor output frequency [s] */
(PID.TID 0000.0001)                 1.200000000000000E+03
(PID.TID 0000.0001)     ;
(PID.TID 0000.0001) OBCS_monSelect = /* select group of variables to monitor */
(PID.TID 0000.0001)                       1
(PID.TID 0000.0001)     ;
(PID.TID 0000.0001) ======== Tile bi=   1 , bj=   1 ========
(PID.TID 0000.0001)  OB_Jn = /* Northern OB local indices */
(PID.TID 0000.0001)    46 @        0                            /* I = -2: 43 */
(PID.TID 0000.0001)  OB_Js = /* Southern OB local indices */
(PID.TID 0000.0001)    46 @        1                            /* I = -2: 43 */
(PID.TID 0000.0001)  OB_Ie = /* Eastern OB local indices */
(PID.TID 0000.0001)    27 @        0                            /* J = -2: 24 */
(PID.TID 0000.0001)  OB_Iw = /* Western OB local indices */
(PID.TID 0000.0001)    27 @        1                            /* J = -2: 24 */
(PID.TID 0000.0001) ======== Tile bi=   2 , bj=   1 ========
(PID.TID 0000.0001)  OB_Jn = /* Northern OB local indices */
(PID.TID 0000.0001)    46 @        0                            /* I = -2: 43 */
(PID.TID 0000.0001)  OB_Js = /* Southern OB local indices */
(PID.TID 0000.0001)    46 @        1                            /* I = -2: 43 */
(PID.TID 0000.0001)  OB_Ie = /* Eastern OB local indices */
(PID.TID 0000.0001)    27 @       40                            /* J = -2: 24 */
(PID.TID 0000.0001)  OB_Iw = /* Western OB local indices */
(PID.TID 0000.0001)    27 @        0                            /* J = -2: 24 */
(PID.TID 0000.0001) ======== Tile bi=   1 , bj=   2 ========
(PID.TID 0000.0001)  OB_Jn = /* Northern OB local indices */
(PID.TID 0000.0001)    46 @       21                            /* I = -2: 43 */
(PID.TID 0000.0001)  OB_Js = /* Southern OB local indices */
(PID.TID 0000.0001)    46 @        0                            /* I = -2: 43 */
(PID.TID 0000.0001)  OB_Ie = /* Eastern OB local indices */
(PID.TID 0000.0001)    27 @        0                            /* J = -2: 24 */
(PID.TID 0000.0001)  OB_Iw = /* Western OB local indices */
(PID.TID 0000.0001)    27 @        1                            /* J = -2: 24 */
(PID.TID 0000.0001) ======== Tile bi=   2 , bj=   2 ========
(PID.TID 0000.0001)  OB_Jn = /* Northern OB local indices */
(PID.TID 0000.0001)    46 @       21                            /* I = -2: 43 */
(PID.TID 0000.0001)  OB_Js = /* Southern OB local indices */
(PID.TID 0000.0001)    46 @        0                            /* I = -2: 43 */
(PID.TID 0000.0001)  OB_Ie = /* Eastern OB local indices */
(PID.TID 0000.0001)    27 @       40                            /* J = -2: 24 */
(PID.TID 0000.0001)  OB_Iw = /* Western OB local indices */
(PID.TID 0000.0001)    27 @        0                            /* J = -2: 24 */
(PID.TID 0000.0001) OBCS_CHECK: end summary.
(PID.TID 0000.0001) OBCS_CHECK: #define ALLOW_ORLANSKI
(PID.TID 0000.0001) OBCS_CHECK: #define ALLOW_OBCS_STEVENS
(PID.TID 0000.0001) OBCS_CHECK: set-up OK
(PID.TID 0000.0001) OBCS_CHECK: check Inside Mask and OB locations: OK
(PID.TID 0000.0001) GAD_CHECK: #define ALLOW_GENERIC_ADVDIFF
(PID.TID 0000.0001) // =======================================================
(PID.TID 0000.0001) // CONFIG_CHECK : Normal End
(PID.TID 0000.0001) // =======================================================
(PID.TID 0000.0001) 
(PID.TID 0000.0001) Start initial hydrostatic pressure computation
(PID.TID 0000.0001) Pressure is predetermined for buoyancyRelation OCEANIC
(PID.TID 0000.0001) 
 OBCS_FIELDS_LOAD,         0 : iP,iLd,i0,i1=    2    0    1    2 ; Wght=  1.0000000000  0.0000000000
 OBCS_FIELDS_LOAD, it=         0 : Reading new data, i0,i1=    1    2 (prev=    2    0 )
(PID.TID 0000.0001)  MDS_READ_SEC_YZ: opening global file: OB_EastU.bin
(PID.TID 0000.0001)  MDS_READ_SEC_YZ: opening global file: OB_EastU.bin
(PID.TID 0000.0001)  MDS_READ_SEC_YZ: opening global file: OB_EastH.bin
(PID.TID 0000.0001)  MDS_READ_SEC_YZ: opening global file: OB_EastH.bin
(PID.TID 0000.0001)  MDS_READ_SEC_YZ: opening global file: OB_WestU.bin
(PID.TID 0000.0001)  MDS_READ_SEC_YZ: opening global file: OB_WestU.bin
(PID.TID 0000.0001)  MDS_READ_SEC_YZ: opening global file: OBzonalS.bin
(PID.TID 0000.0001)  MDS_READ_SEC_YZ: opening global file: OBzonalS.bin
(PID.TID 0000.0001)  MDS_READ_SEC_YZ: opening global file: OB_WestH.bin
(PID.TID 0000.0001)  MDS_READ_SEC_YZ: opening global file: OB_WestH.bin
(PID.TID 0000.0001)  MDS_READ_SEC_XZ: opening global file: OBmeridU.bin
(PID.TID 0000.0001)  MDS_READ_SEC_XZ: opening global file: OBmeridU.bin
(PID.TID 0000.0001)  MDS_READ_SEC_XZ: opening global file: OBmeridU.bin
(PID.TID 0000.0001)  MDS_READ_SEC_XZ: opening global file: OBmeridU.bin
(PID.TID 0000.0001) // =======================================================
(PID.TID 0000.0001) // Model current state
(PID.TID 0000.0001) // =======================================================
(PID.TID 0000.0001) 
(PID.TID 0000.0001) // =======================================================
(PID.TID 0000.0001) // Begin MONITOR dynamic field statistics
(PID.TID 0000.0001) // =======================================================
(PID.TID 0000.0001) %MON time_tsnumber                =                     0
(PID.TID 0000.0001) %MON time_secondsf                =   1.0800000000000E+04
(PID.TID 0000.0001) %MON dynstat_eta_max              =   0.0000000000000E+00
(PID.TID 0000.0001) %MON dynstat_eta_min              =   0.0000000000000E+00
(PID.TID 0000.0001) %MON dynstat_eta_mean             =   0.0000000000000E+00
(PID.TID 0000.0001) %MON dynstat_eta_sd               =   0.0000000000000E+00
(PID.TID 0000.0001) %MON dynstat_eta_del2             =   0.0000000000000E+00
(PID.TID 0000.0001) %MON dynstat_uvel_max             =   2.5250000000000E-01
(PID.TID 0000.0001) %MON dynstat_uvel_min             =   0.0000000000000E+00
(PID.TID 0000.0001) %MON dynstat_uvel_mean            =   6.6507519863536E-03
(PID.TID 0000.0001) %MON dynstat_uvel_sd              =   4.0232098670141E-02
(PID.TID 0000.0001) %MON dynstat_uvel_del2            =   5.1389523709943E-04
(PID.TID 0000.0001) %MON dynstat_vvel_max             =   0.0000000000000E+00
(PID.TID 0000.0001) %MON dynstat_vvel_min             =   0.0000000000000E+00
(PID.TID 0000.0001) %MON dynstat_vvel_mean            =   0.0000000000000E+00
(PID.TID 0000.0001) %MON dynstat_vvel_sd              =   0.0000000000000E+00
(PID.TID 0000.0001) %MON dynstat_vvel_del2            =   0.0000000000000E+00
(PID.TID 0000.0001) %MON dynstat_wvel_max             =   2.7755575615629E-17
(PID.TID 0000.0001) %MON dynstat_wvel_min             =  -3.1225022567583E-17
(PID.TID 0000.0001) %MON dynstat_wvel_mean            =   2.3109104919762E-21
(PID.TID 0000.0001) %MON dynstat_wvel_sd              =   1.2275037476285E-18
(PID.TID 0000.0001) %MON dynstat_wvel_del2            =   2.9863169910433E-20
(PID.TID 0000.0001) %MON dynstat_theta_max            =   6.9683400000000E-01
(PID.TID 0000.0001) %MON dynstat_theta_min            =  -6.9683400000000E-01
(PID.TID 0000.0001) %MON dynstat_theta_mean           =   2.0290053818661E-02
(PID.TID 0000.0001) %MON dynstat_theta_sd             =   4.5211958569214E-01
(PID.TID 0000.0001) %MON dynstat_theta_del2           =   0.0000000000000E+00
(PID.TID 0000.0001) %MON dynstat_salt_max             =   3.5000000000000E+01
(PID.TID 0000.0001) %MON dynstat_salt_min             =   3.5000000000000E+01
(PID.TID 0000.0001) %MON dynstat_salt_mean            =   3.5000000000000E+01
(PID.TID 0000.0001) %MON dynstat_salt_sd              =   1.1368683772162E-13
(PID.TID 0000.0001) %MON dynstat_salt_del2            =   7.4287972674412E-04
(PID.TID 0000.0001) %MON advcfl_uvel_max              =   3.0300000000000E-02
(PID.TID 0000.0001) %MON advcfl_vvel_max              =   0.0000000000000E+00
(PID.TID 0000.0001) %MON advcfl_wvel_max              =   6.6613381477509E-17
(PID.TID 0000.0001) %MON advcfl_W_hf_max              =   2.9605947323338E-17
(PID.TID 0000.0001) %MON pe_b_mean                    =   0.0000000000000E+00
(PID.TID 0000.0001) %MON ke_max                       =   1.5939062500000E-02
(PID.TID 0000.0001) %MON ke_mean                      =   4.1972878894855E-04
(PID.TID 0000.0001) %MON ke_vol                       =   3.3507127984312E+14
(PID.TID 0000.0001) %MON vort_r_min                   =  -5.0000000000000E-05
(PID.TID 0000.0001) %MON vort_r_max                   =   5.0000000000000E-05
(PID.TID 0000.0001) %MON vort_a_mean                  =   1.0000000000000E-04
(PID.TID 0000.0001) %MON vort_a_sd                    =   1.0868756421277E-05
(PID.TID 0000.0001) %MON vort_p_mean                  =   1.0161982423688E-04
(PID.TID 0000.0001) %MON vort_p_sd                    =   3.1004324650514E-05
(PID.TID 0000.0001) %MON surfExpan_theta_mean         =   1.5497619213575E-21
(PID.TID 0000.0001) %MON surfExpan_salt_mean          =   7.7840155973318E-20
(PID.TID 0000.0001) // =======================================================
(PID.TID 0000.0001) // End MONITOR dynamic field statistics
(PID.TID 0000.0001) // =======================================================
(PID.TID 0000.0001) // =======================================================
(PID.TID 0000.0001) // Begin OBCS MONITOR field statistics
(PID.TID 0000.0001) // =======================================================
(PID.TID 0000.0001) %MON obc_time_tsnumber            =                     0
(PID.TID 0000.0001) %MON obc_time_secondsf            =   1.0800000000000E+04
(PID.TID 0000.0001) %MON obc_E_uVel_max               =   2.4750000000000E-01
(PID.TID 0000.0001) %MON obc_E_uVel_min               =   2.4750000000000E-01
(PID.TID 0000.0001) %MON obc_E_uVel_mean              =   2.4750000000000E-01
(PID.TID 0000.0001) %MON obc_E_uVel_sd                =   6.9693799815587E-09
(PID.TID 0000.0001) %MON obc_E_uVel_Int               =   2.2274999999999E+08
(PID.TID 0000.0001) %MON obc_W_uVel_max               =   2.5250000000000E-01
(PID.TID 0000.0001) %MON obc_W_uVel_min               =   2.5250000000000E-01
(PID.TID 0000.0001) %MON obc_W_uVel_mean              =   2.5250000000000E-01
(PID.TID 0000.0001) %MON obc_W_uVel_sd                =   6.4523920698795E-09
(PID.TID 0000.0001) %MON obc_W_uVel_Int               =   2.2724999999999E+08
(PID.TID 0000.0001) %MON obc_N_vVel_max               =   0.0000000000000E+00
(PID.TID 0000.0001) %MON obc_N_vVel_min               =   0.0000000000000E+00
(PID.TID 0000.0001) %MON obc_N_vVel_mean              =   0.0000000000000E+00
(PID.TID 0000.0001) %MON obc_N_vVel_sd                =   0.0000000000000E+00
(PID.TID 0000.0001) %MON obc_N_vVel_Int               =   0.0000000000000E+00
(PID.TID 0000.0001) %MON obc_S_vVel_max               =   0.0000000000000E+00
(PID.TID 0000.0001) %MON obc_S_vVel_min               =   0.0000000000000E+00
(PID.TID 0000.0001) %MON obc_S_vVel_mean              =   0.0000000000000E+00
(PID.TID 0000.0001) %MON obc_S_vVel_sd                =   0.0000000000000E+00
(PID.TID 0000.0001) %MON obc_S_vVel_Int               =   0.0000000000000E+00
(PID.TID 0000.0001) %MON obc_E_theta_max              =   6.9683400000000E-01
(PID.TID 0000.0001) %MON obc_E_theta_min              =  -6.9683400000000E-01
(PID.TID 0000.0001) %MON obc_E_theta_mean             =   2.6226043701173E-14
(PID.TID 0000.0001) %MON obc_E_theta_sd               =   4.5618475594441E-01
(PID.TID 0000.0001) %MON obc_W_theta_max              =   6.9683400000000E-01
(PID.TID 0000.0001) %MON obc_W_theta_min              =  -6.9683400000000E-01
(PID.TID 0000.0001) %MON obc_W_theta_mean             =   2.6226043701173E-14
(PID.TID 0000.0001) %MON obc_W_theta_sd               =   4.5618475594441E-01
(PID.TID 0000.0001) %MON obc_N_theta_max              =   6.9683400000000E-01
(PID.TID 0000.0001) %MON obc_N_theta_min              =  -6.9683400000000E-01
(PID.TID 0000.0001) %MON obc_N_theta_mean             =   5.0183265503355E-05
(PID.TID 0000.0001) %MON obc_N_theta_sd               =   4.5616285086401E-01
(PID.TID 0000.0001) %MON obc_S_theta_max              =   6.9683400000000E-01
(PID.TID 0000.0001) %MON obc_S_theta_min              =  -6.9683400000000E-01
(PID.TID 0000.0001) %MON obc_S_theta_mean             =   5.0183265503355E-05
(PID.TID 0000.0001) %MON obc_S_theta_sd               =   4.5616285086401E-01
(PID.TID 0000.0001) // =======================================================
(PID.TID 0000.0001) // End OBCS MONITOR field statistics
(PID.TID 0000.0001) // =======================================================
 EXTERNAL_FIELDS_LOAD,         0 : iP,iLd,i0,i1=    2    0    1    2 ; Wght=  1.0000000000  0.0000000000
 EXTERNAL_FIELDS_LOAD, it=         0 : Reading new data, i0,i1=    1    2 (prev=    2    0 )
 OBCS_FIELDS_LOAD,         1 : iP,iLd,i0,i1=    1    2    1    2 ; Wght=  0.9722222222  0.0277777778
(PID.TID 0000.0001) SOLVE_FOR_PRESSURE: putPmEinXvector =    F
(PID.TID 0000.0001) SOLVE_FOR_PRESSURE: zeroPsNH=    F , zeroMeanPnh=    F
(PID.TID 0000.0001) SOLVE_FOR_PRESSURE: oldFreeSurfTerm =    F
 cg2d: Sum(rhs),rhsMax =  -7.70274463059248E-01  2.04833193029835E+00
(PID.TID 0000.0001)                    cg2d_init_res =    8.86719606558989E+00
(PID.TID 0000.0001)                       cg2d_iters =   196
(PID.TID 0000.0001)                         cg2d_res =    8.33673854057829E-14
(PID.TID 0000.0001) // =======================================================
(PID.TID 0000.0001) // Begin MONITOR dynamic field statistics
(PID.TID 0000.0001) // =======================================================
(PID.TID 0000.0001) %MON time_tsnumber                =                     1
(PID.TID 0000.0001) %MON time_secondsf                =   1.1400000000000E+04
(PID.TID 0000.0001) %MON dynstat_eta_max              =   4.9258889856464E+00
(PID.TID 0000.0001) %MON dynstat_eta_min              =  -4.8196643818876E+00
(PID.TID 0000.0001) %MON dynstat_eta_mean             =   3.2769230769231E-02
(PID.TID 0000.0001) %MON dynstat_eta_sd               =   2.5556250698977E+00
(PID.TID 0000.0001) %MON dynstat_eta_del2             =   9.1008780938668E-05
(PID.TID 0000.0001) %MON dynstat_uvel_max             =   2.5236111111111E-01
(PID.TID 0000.0001) %MON dynstat_uvel_min             =   9.2158884132174E-02
(PID.TID 0000.0001) %MON dynstat_uvel_mean            =   1.5245795159227E-01
(PID.TID 0000.0001) %MON dynstat_uvel_sd              =   4.2442834836951E-02
(PID.TID 0000.0001) %MON dynstat_uvel_del2            =   1.4066545760346E-04
(PID.TID 0000.0001) %MON dynstat_vvel_max             =   3.2054318877616E-02
(PID.TID 0000.0001) %MON dynstat_vvel_min             =  -3.1923107392989E-02
(PID.TID 0000.0001) %MON dynstat_vvel_mean            =  -3.3723509589542E-05
(PID.TID 0000.0001) %MON dynstat_vvel_sd              =   6.9508874839613E-03
(PID.TID 0000.0001) %MON dynstat_vvel_del2            =   1.7036842200098E-05
(PID.TID 0000.0001) %MON dynstat_wvel_max             =   8.7241679265592E-03
(PID.TID 0000.0001) %MON dynstat_wvel_min             =  -8.6585863636286E-03
(PID.TID 0000.0001) %MON dynstat_wvel_mean            =   9.3276630319441E-07
(PID.TID 0000.0001) %MON dynstat_wvel_sd              =   8.0525630100894E-04
(PID.TID 0000.0001) %MON dynstat_wvel_del2            =   2.3872939637076E-06
(PID.TID 0000.0001) %MON dynstat_theta_max            =   6.9683400000000E-01
(PID.TID 0000.0001) %MON dynstat_theta_min            =  -6.9683399622455E-01
(PID.TID 0000.0001) %MON dynstat_theta_mean           =   2.0290053818663E-02
(PID.TID 0000.0001) %MON dynstat_theta_sd             =   4.5211958422965E-01
(PID.TID 0000.0001) %MON dynstat_theta_del2           =   6.4779737972258E-12
(PID.TID 0000.0001) %MON dynstat_salt_max             =   3.5039150000000E+01
(PID.TID 0000.0001) %MON dynstat_salt_min             =   3.5000000000000E+01
(PID.TID 0000.0001) %MON dynstat_salt_mean            =   3.5000525783649E+01
(PID.TID 0000.0001) %MON dynstat_salt_sd              =   4.5064377717963E-03
(PID.TID 0000.0001) %MON dynstat_salt_del2            =   6.8536049965244E-04
(PID.TID 0000.0001) %MON advcfl_uvel_max              =   3.0283333333333E-02
(PID.TID 0000.0001) %MON advcfl_vvel_max              =   3.8465182653139E-03
(PID.TID 0000.0001) %MON advcfl_wvel_max              =   9.3057791216632E-03
(PID.TID 0000.0001) %MON advcfl_W_hf_max              =   1.9535989464157E-02
(PID.TID 0000.0001) %MON pe_b_mean                    =   7.4586819336240E-03
(PID.TID 0000.0001) %MON ke_max                       =   3.1573500633725E-02
(PID.TID 0000.0001) %MON ke_mean                      =   1.2248335021600E-02
(PID.TID 0000.0001) %MON ke_vol                       =   3.3507127984312E+14
(PID.TID 0000.0001) %MON vort_r_min                   =  -4.5863803997398E-05
(PID.TID 0000.0001) %MON vort_r_max                   =   4.5825338625427E-05
(PID.TID 0000.0001) %MON vort_a_mean                  =   1.0000000000000E-04
(PID.TID 0000.0001) %MON vort_a_sd                    =   5.0987691655327E-06
(PID.TID 0000.0001) %MON vort_p_mean                  =   1.0161982423688E-04
(PID.TID 0000.0001) %MON vort_p_sd                    =   3.0227080479843E-05
(PID.TID 0000.0001) %MON surfExpan_theta_mean         =   1.3404412376536E-06
(PID.TID 0000.0001) %MON surfExpan_salt_mean          =   1.9156551110291E-03
(PID.TID 0000.0001) // =======================================================
(PID.TID 0000.0001) // End MONITOR dynamic field statistics
(PID.TID 0000.0001) // =======================================================
 EXTERNAL_FIELDS_LOAD,         1 : iP,iLd,i0,i1=    1    2    1    2 ; Wght=  0.9722222222  0.0277777778
 OBCS_FIELDS_LOAD,         2 : iP,iLd,i0,i1=    1    2    1    2 ; Wght=  0.9444444444  0.0555555556
 cg2d: Sum(rhs),rhsMax =  -9.03869406202921E+00  3.38849526339471E-01
(PID.TID 0000.0001)                    cg2d_init_res =    5.12015877784424E+01
(PID.TID 0000.0001)                       cg2d_iters =   204
(PID.TID 0000.0001)                         cg2d_res =    8.22004635082311E-14
(PID.TID 0000.0001) // =======================================================
(PID.TID 0000.0001) // Begin MONITOR dynamic field statistics
(PID.TID 0000.0001) // =======================================================
(PID.TID 0000.0001) %MON time_tsnumber                =                     2
(PID.TID 0000.0001) %MON time_secondsf                =   1.2000000000000E+04
(PID.TID 0000.0001) %MON dynstat_eta_max              =   4.0847403275644E+00
(PID.TID 0000.0001) %MON dynstat_eta_min              =  -3.9520170676958E+00
(PID.TID 0000.0001) %MON dynstat_eta_mean             =   6.3611111111109E-02
(PID.TID 0000.0001) %MON dynstat_eta_sd               =   2.6236757548209E+00
(PID.TID 0000.0001) %MON dynstat_eta_del2             =   1.3079336911528E-04
(PID.TID 0000.0001) %MON dynstat_uvel_max             =   5.7293545278211E-01
(PID.TID 0000.0001) %MON dynstat_uvel_min             =   2.0910403082761E-01
(PID.TID 0000.0001) %MON dynstat_uvel_mean            =   2.6033627287916E-01
(PID.TID 0000.0001) %MON dynstat_uvel_sd              =   2.5263552793725E-02
(PID.TID 0000.0001) %MON dynstat_uvel_del2            =   5.3279203783397E-05
(PID.TID 0000.0001) %MON dynstat_vvel_max             =   8.4535663439570E-02
(PID.TID 0000.0001) %MON dynstat_vvel_min             =  -9.2662174187509E-02
(PID.TID 0000.0001) %MON dynstat_vvel_mean            =  -2.3633925357895E-03
(PID.TID 0000.0001) %MON dynstat_vvel_sd              =   1.7990109585824E-02
(PID.TID 0000.0001) %MON dynstat_vvel_del2            =   1.9967589717315E-05
(PID.TID 0000.0001) %MON dynstat_wvel_max             =   2.0839149009197E-02
(PID.TID 0000.0001) %MON dynstat_wvel_min             =  -2.0679018819987E-02
(PID.TID 0000.0001) %MON dynstat_wvel_mean            =   1.5624153608259E-06
(PID.TID 0000.0001) %MON dynstat_wvel_sd              =   1.9172553733771E-03
(PID.TID 0000.0001) %MON dynstat_wvel_del2            =   5.7233917245191E-06
(PID.TID 0000.0001) %MON dynstat_theta_max            =   6.9783758835878E-01
(PID.TID 0000.0001) %MON dynstat_theta_min            =  -6.9886167726340E-01
(PID.TID 0000.0001) %MON dynstat_theta_mean           =   2.0289786710466E-02
(PID.TID 0000.0001) %MON dynstat_theta_sd             =   4.5211970134703E-01
(PID.TID 0000.0001) %MON dynstat_theta_del2           =   1.1757121782464E-06
(PID.TID 0000.0001) %MON dynstat_salt_max             =   3.5079104411196E+01
(PID.TID 0000.0001) %MON dynstat_salt_min             =   3.4998750522106E+01
(PID.TID 0000.0001) %MON dynstat_salt_mean            =   3.5001044715231E+01
(PID.TID 0000.0001) %MON dynstat_salt_sd              =   9.1044804807690E-03
(PID.TID 0000.0001) %MON dynstat_salt_del2            =   6.2763041919260E-04
(PID.TID 0000.0001) %MON advcfl_uvel_max              =   6.8752254333853E-02
(PID.TID 0000.0001) %MON advcfl_vvel_max              =   1.1119460902501E-02
(PID.TID 0000.0001) %MON advcfl_wvel_max              =   2.2228425609810E-02
(PID.TID 0000.0001) %MON advcfl_W_hf_max              =   5.0283133044328E-02
(PID.TID 0000.0001) %MON pe_b_mean                    =   7.8644550372111E-03
(PID.TID 0000.0001) %MON ke_max                       =   1.5997551175334E-01
(PID.TID 0000.0001) %MON ke_mean                      =   3.4285580021715E-02
(PID.TID 0000.0001) %MON ke_vol                       =   3.3507383584313E+14
(PID.TID 0000.0001) %MON vort_r_min                   =  -1.2102586986788E-04
(PID.TID 0000.0001) %MON vort_r_max                   =   1.2041408085541E-04
(PID.TID 0000.0001) %MON vort_a_mean                  =   1.0000000000000E-04
(PID.TID 0000.0001) %MON vort_a_sd                    =   6.2218455243862E-06
(PID.TID 0000.0001) %MON vort_p_mean                  =   1.0161912081620E-04
(PID.TID 0000.0001) %MON vort_p_sd                    =   3.4206421329652E-05
(PID.TID 0000.0001) %MON surfExpan_theta_mean         =   2.1811995560179E-06
(PID.TID 0000.0001) %MON surfExpan_salt_mean          =   1.7973089228609E-03
(PID.TID 0000.0001) // =======================================================
(PID.TID 0000.0001) // End MONITOR dynamic field statistics
(PID.TID 0000.0001) // =======================================================
(PID.TID 0000.0001) // =======================================================
(PID.TID 0000.0001) // Begin OBCS MONITOR field statistics
(PID.TID 0000.0001) // =======================================================
(PID.TID 0000.0001) %MON obc_time_tsnumber            =                     2
(PID.TID 0000.0001) %MON obc_time_secondsf            =   1.2000000000000E+04
(PID.TID 0000.0001) %MON obc_E_uVel_max               =   2.4777777777778E-01
(PID.TID 0000.0001) %MON obc_E_uVel_min               =   2.4777777777778E-01
(PID.TID 0000.0001) %MON obc_E_uVel_mean              =   2.4777777777778E-01
(PID.TID 0000.0001) %MON obc_E_uVel_sd                =   1.1482115840482E-08
(PID.TID 0000.0001) %MON obc_E_uVel_Int               =   2.2299531975308E+08
(PID.TID 0000.0001) %MON obc_W_uVel_max               =   2.5222222222222E-01
(PID.TID 0000.0001) %MON obc_W_uVel_min               =   2.5222222222222E-01
(PID.TID 0000.0001) %MON obc_W_uVel_mean              =   2.5222222222222E-01
(PID.TID 0000.0001) %MON obc_W_uVel_sd                =   1.0536712127724E-08
(PID.TID 0000.0001) %MON obc_W_uVel_Int               =   2.2700476419752E+08
(PID.TID 0000.0001) %MON obc_N_vVel_max               =   0.0000000000000E+00
(PID.TID 0000.0001) %MON obc_N_vVel_min               =   0.0000000000000E+00
(PID.TID 0000.0001) %MON obc_N_vVel_mean              =   0.0000000000000E+00
(PID.TID 0000.0001) %MON obc_N_vVel_sd                =   0.0000000000000E+00
(PID.TID 0000.0001) %MON obc_N_vVel_Int               =   0.0000000000000E+00
(PID.TID 0000.0001) %MON obc_S_vVel_max               =   0.0000000000000E+00
(PID.TID 0000.0001) %MON obc_S_vVel_min               =   0.0000000000000E+00
(PID.TID 0000.0001) %MON obc_S_vVel_mean              =   0.0000000000000E+00
(PID.TID 0000.0001) %MON obc_S_vVel_sd                =   0.0000000000000E+00
(PID.TID 0000.0001) %MON obc_S_vVel_Int               =   0.0000000000000E+00
(PID.TID 0000.0001) %MON obc_E_theta_max              =   6.9683400000000E-01
(PID.TID 0000.0001) %MON obc_E_theta_min              =  -6.9683400000000E-01
(PID.TID 0000.0001) %MON obc_E_theta_mean             =   2.6224265780561E-14
(PID.TID 0000.0001) %MON obc_E_theta_sd               =   4.5618475594441E-01
(PID.TID 0000.0001) %MON obc_W_theta_max              =   6.9683400000000E-01
(PID.TID 0000.0001) %MON obc_W_theta_min              =  -6.9683400000000E-01
(PID.TID 0000.0001) %MON obc_W_theta_mean             =   2.6250328037019E-14
(PID.TID 0000.0001) %MON obc_W_theta_sd               =   4.5618475594441E-01
(PID.TID 0000.0001) %MON obc_N_theta_max              =   6.9683400000000E-01
(PID.TID 0000.0001) %MON obc_N_theta_min              =  -6.9683400000000E-01
(PID.TID 0000.0001) %MON obc_N_theta_mean             =   5.0183265503355E-05
(PID.TID 0000.0001) %MON obc_N_theta_sd               =   4.5616285086401E-01
(PID.TID 0000.0001) %MON obc_S_theta_max              =   6.9683400000000E-01
(PID.TID 0000.0001) %MON obc_S_theta_min              =  -6.9683400000000E-01
(PID.TID 0000.0001) %MON obc_S_theta_mean             =   5.0183265503355E-05
(PID.TID 0000.0001) %MON obc_S_theta_sd               =   4.5616285086401E-01
(PID.TID 0000.0001) // =======================================================
(PID.TID 0000.0001) // End OBCS MONITOR field statistics
(PID.TID 0000.0001) // =======================================================
 EXTERNAL_FIELDS_LOAD,         2 : iP,iLd,i0,i1=    1    2    1    2 ; Wght=  0.9444444444  0.0555555556
 OBCS_FIELDS_LOAD,         3 : iP,iLd,i0,i1=    1    2    1    2 ; Wght=  0.9166666667  0.0833333333
 cg2d: Sum(rhs),rhsMax =  -1.95426367614333E+01  2.27959938363918E-01
(PID.TID 0000.0001)                    cg2d_init_res =    1.08792002931189E+01
(PID.TID 0000.0001)                       cg2d_iters =   200
(PID.TID 0000.0001)                         cg2d_res =    9.67972947870194E-14
(PID.TID 0000.0001) // =======================================================
(PID.TID 0000.0001) // Begin MONITOR dynamic field statistics
(PID.TID 0000.0001) // =======================================================
(PID.TID 0000.0001) %MON time_tsnumber                =                     3
(PID.TID 0000.0001) %MON time_secondsf                =   1.2600000000000E+04
(PID.TID 0000.0001) %MON dynstat_eta_max              =   2.3304699587546E+00
(PID.TID 0000.0001) %MON dynstat_eta_min              =  -2.1459821075782E+00
(PID.TID 0000.0001) %MON dynstat_eta_mean             =   9.2525641025637E-02
(PID.TID 0000.0001) %MON dynstat_eta_sd               =   1.4585318031129E+00
(PID.TID 0000.0001) %MON dynstat_eta_del2             =   8.6622665245792E-05
(PID.TID 0000.0001) %MON dynstat_uvel_max             =   7.9720492784448E-01
(PID.TID 0000.0001) %MON dynstat_uvel_min             =   2.4791666666667E-01
(PID.TID 0000.0001) %MON dynstat_uvel_mean            =   3.1378906959218E-01
(PID.TID 0000.0001) %MON dynstat_uvel_sd              =   5.5156209215650E-02
(PID.TID 0000.0001) %MON dynstat_uvel_del2            =   1.4603529348261E-04
(PID.TID 0000.0001) %MON dynstat_vvel_max             =   1.2645625682389E-01
(PID.TID 0000.0001) %MON dynstat_vvel_min             =  -1.4898397760829E-01
(PID.TID 0000.0001) %MON dynstat_vvel_mean            =  -1.8368334097381E-03
(PID.TID 0000.0001) %MON dynstat_vvel_sd              =   2.5244049449339E-02
(PID.TID 0000.0001) %MON dynstat_vvel_del2            =   2.3252015848896E-05
(PID.TID 0000.0001) %MON dynstat_wvel_max             =   2.8217992429451E-02
(PID.TID 0000.0001) %MON dynstat_wvel_min             =  -2.7714848403001E-02
(PID.TID 0000.0001) %MON dynstat_wvel_mean            =   1.2647294967872E-06
(PID.TID 0000.0001) %MON dynstat_wvel_sd              =   2.5800104957526E-03
(PID.TID 0000.0001) %MON dynstat_wvel_del2            =   7.5568815828360E-06
(PID.TID 0000.0001) %MON dynstat_theta_max            =   6.9994048214400E-01
(PID.TID 0000.0001) %MON dynstat_theta_min            =  -7.0293700105463E-01
(PID.TID 0000.0001) %MON dynstat_theta_mean           =   2.0289570584492E-02
(PID.TID 0000.0001) %MON dynstat_theta_sd             =   4.5211997305165E-01
(PID.TID 0000.0001) %MON dynstat_theta_del2           =   3.4000558067594E-06
(PID.TID 0000.0001) %MON dynstat_salt_max             =   3.5115885885749E+01
(PID.TID 0000.0001) %MON dynstat_salt_min             =   3.4999505232216E+01
(PID.TID 0000.0001) %MON dynstat_salt_mean            =   3.5001560398625E+01
(PID.TID 0000.0001) %MON dynstat_salt_sd              =   1.3321509204995E-02
(PID.TID 0000.0001) %MON dynstat_salt_del2            =   5.7813159653908E-04
(PID.TID 0000.0001) %MON advcfl_uvel_max              =   9.5664591341338E-02
(PID.TID 0000.0001) %MON advcfl_vvel_max              =   1.7878077312994E-02
(PID.TID 0000.0001) %MON advcfl_wvel_max              =   3.0099191924748E-02
(PID.TID 0000.0001) %MON advcfl_W_hf_max              =   7.1210526081771E-02
(PID.TID 0000.0001) %MON pe_b_mean                    =   2.4387428988505E-03
(PID.TID 0000.0001) %MON ke_max                       =   3.1174729031230E-01
(PID.TID 0000.0001) %MON ke_mean                      =   5.1150868588104E-02
(PID.TID 0000.0001) %MON ke_vol                       =   3.3507624150979E+14
(PID.TID 0000.0001) %MON vort_r_min                   =  -1.7682628197524E-04
(PID.TID 0000.0001) %MON vort_r_max                   =   1.7208973160666E-04
(PID.TID 0000.0001) %MON vort_a_mean                  =   1.0000000000000E-04
(PID.TID 0000.0001) %MON vort_a_sd                    =   9.3700260456160E-06
(PID.TID 0000.0001) %MON vort_p_mean                  =   1.0161845337913E-04
(PID.TID 0000.0001) %MON vort_p_sd                    =   3.8549958956716E-05
(PID.TID 0000.0001) %MON surfExpan_theta_mean         =   2.0343969594562E-06
(PID.TID 0000.0001) %MON surfExpan_salt_mean          =   1.6821607901943E-03
(PID.TID 0000.0001) // =======================================================
(PID.TID 0000.0001) // End MONITOR dynamic field statistics
(PID.TID 0000.0001) // =======================================================
 EXTERNAL_FIELDS_LOAD,         3 : iP,iLd,i0,i1=    1    2    1    2 ; Wght=  0.9166666667  0.0833333333
 OBCS_FIELDS_LOAD,         4 : iP,iLd,i0,i1=    1    2    1    2 ; Wght=  0.8888888889  0.1111111111
 cg2d: Sum(rhs),rhsMax =  -2.25978892556618E+01  2.54639755180336E-01
(PID.TID 0000.0001)                    cg2d_init_res =    8.47208774826424E+00
(PID.TID 0000.0001)                       cg2d_iters =   198
(PID.TID 0000.0001)                         cg2d_res =    9.42431172066822E-14
(PID.TID 0000.0001) // =======================================================
(PID.TID 0000.0001) // Begin MONITOR dynamic field statistics
(PID.TID 0000.0001) // =======================================================
(PID.TID 0000.0001) %MON time_tsnumber                =                     4
(PID.TID 0000.0001) %MON time_secondsf                =   1.3200000000000E+04
(PID.TID 0000.0001) %MON dynstat_eta_max              =   6.5010324518238E-01
(PID.TID 0000.0001) %MON dynstat_eta_min              =  -4.1011388745514E-01
(PID.TID 0000.0001) %MON dynstat_eta_mean             =   1.1951282051282E-01
(PID.TID 0000.0001) %MON dynstat_eta_sd               =   2.6181473221020E-01
(PID.TID 0000.0001) %MON dynstat_eta_del2             =   2.2189384822001E-05
(PID.TID 0000.0001) %MON dynstat_uvel_max             =   8.2027000902863E-01
(PID.TID 0000.0001) %MON dynstat_uvel_min             =   2.4805555555556E-01
(PID.TID 0000.0001) %MON dynstat_uvel_mean            =   3.1811748900706E-01
(PID.TID 0000.0001) %MON dynstat_uvel_sd              =   5.9950265564782E-02
(PID.TID 0000.0001) %MON dynstat_uvel_del2            =   1.4941380782591E-04
(PID.TID 0000.0001) %MON dynstat_vvel_max             =   1.4383364846215E-01
(PID.TID 0000.0001) %MON dynstat_vvel_min             =  -1.8997688784705E-01
(PID.TID 0000.0001) %MON dynstat_vvel_mean            =  -4.9752475678070E-04
(PID.TID 0000.0001) %MON dynstat_vvel_sd              =   2.6651062331988E-02
(PID.TID 0000.0001) %MON dynstat_vvel_del2            =   2.6962885036462E-05
(PID.TID 0000.0001) %MON dynstat_wvel_max             =   2.9138382375815E-02
(PID.TID 0000.0001) %MON dynstat_wvel_min             =  -2.7979128897208E-02
(PID.TID 0000.0001) %MON dynstat_wvel_mean            =   8.9420754833772E-07
(PID.TID 0000.0001) %MON dynstat_wvel_sd              =   2.6344243597714E-03
(PID.TID 0000.0001) %MON dynstat_wvel_del2            =   7.4569627128992E-06
(PID.TID 0000.0001) %MON dynstat_theta_max            =   7.0230559403989E-01
(PID.TID 0000.0001) %MON dynstat_theta_min            =  -7.0753338751825E-01
(PID.TID 0000.0001) %MON dynstat_theta_mean           =   2.0289446323256E-02
(PID.TID 0000.0001) %MON dynstat_theta_sd             =   4.5212011434934E-01
(PID.TID 0000.0001) %MON dynstat_theta_del2           =   5.6890807401064E-06
(PID.TID 0000.0001) %MON dynstat_salt_max             =   3.5150962795135E+01
(PID.TID 0000.0001) %MON dynstat_salt_min             =   3.4999279012794E+01
(PID.TID 0000.0001) %MON dynstat_salt_mean            =   3.5002072003557E+01
(PID.TID 0000.0001) %MON dynstat_salt_sd              =   1.7342631567937E-02
(PID.TID 0000.0001) %MON dynstat_salt_del2            =   5.3328975283266E-04
(PID.TID 0000.0001) %MON advcfl_uvel_max              =   9.8432401083436E-02
(PID.TID 0000.0001) %MON advcfl_vvel_max              =   2.2797226541646E-02
(PID.TID 0000.0001) %MON advcfl_wvel_max              =   3.1080941200869E-02
(PID.TID 0000.0001) %MON advcfl_W_hf_max              =   7.5183290586517E-02
(PID.TID 0000.0001) %MON pe_b_mean                    =   9.4574950752390E-05
(PID.TID 0000.0001) %MON ke_max                       =   3.3381068347392E-01
(PID.TID 0000.0001) %MON ke_mean                      =   5.2845961302037E-02
(PID.TID 0000.0001) %MON ke_vol                       =   3.3507849684312E+14
(PID.TID 0000.0001) %MON vort_r_min                   =  -1.9470534361074E-04
(PID.TID 0000.0001) %MON vort_r_max                   =   1.8318008348819E-04
(PID.TID 0000.0001) %MON vort_a_mean                  =   1.0000000000000E-04
(PID.TID 0000.0001) %MON vort_a_sd                    =   9.7597762628833E-06
(PID.TID 0000.0001) %MON vort_p_mean                  =   1.0161782969770E-04
(PID.TID 0000.0001) %MON vort_p_sd                    =   3.9189660644317E-05
(PID.TID 0000.0001) %MON surfExpan_theta_mean         =   1.8582784946475E-06
(PID.TID 0000.0001) %MON surfExpan_salt_mean          =   1.5685704751049E-03
(PID.TID 0000.0001) // =======================================================
(PID.TID 0000.0001) // End MONITOR dynamic field statistics
(PID.TID 0000.0001) // =======================================================
(PID.TID 0000.0001) // =======================================================
(PID.TID 0000.0001) // Begin OBCS MONITOR field statistics
(PID.TID 0000.0001) // =======================================================
(PID.TID 0000.0001) %MON obc_time_tsnumber            =                     4
(PID.TID 0000.0001) %MON obc_time_secondsf            =   1.3200000000000E+04
(PID.TID 0000.0001) %MON obc_E_uVel_max               =   2.4805555555556E-01
(PID.TID 0000.0001) %MON obc_E_uVel_min               =   2.4805555555556E-01
(PID.TID 0000.0001) %MON obc_E_uVel_mean              =   2.4805555555556E-01
(PID.TID 0000.0001) %MON obc_E_uVel_sd                =  -2.0122792321331E-16
(PID.TID 0000.0001) %MON obc_E_uVel_Int               =   2.2324586574073E+08
(PID.TID 0000.0001) %MON obc_W_uVel_max               =   2.5194444444444E-01
(PID.TID 0000.0001) %MON obc_W_uVel_min               =   2.5194444444444E-01
(PID.TID 0000.0001) %MON obc_W_uVel_mean              =   2.5194444444444E-01
(PID.TID 0000.0001) %MON obc_W_uVel_sd                =   1.5805068191585E-08
(PID.TID 0000.0001) %MON obc_W_uVel_Int               =   2.2675419907406E+08
(PID.TID 0000.0001) %MON obc_N_vVel_max               =   0.0000000000000E+00
(PID.TID 0000.0001) %MON obc_N_vVel_min               =   0.0000000000000E+00
(PID.TID 0000.0001) %MON obc_N_vVel_mean              =   0.0000000000000E+00
(PID.TID 0000.0001) %MON obc_N_vVel_sd                =   0.0000000000000E+00
(PID.TID 0000.0001) %MON obc_N_vVel_Int               =   0.0000000000000E+00
(PID.TID 0000.0001) %MON obc_S_vVel_max               =   0.0000000000000E+00
(PID.TID 0000.0001) %MON obc_S_vVel_min               =   0.0000000000000E+00
(PID.TID 0000.0001) %MON obc_S_vVel_mean              =   0.0000000000000E+00
(PID.TID 0000.0001) %MON obc_S_vVel_sd                =   0.0000000000000E+00
(PID.TID 0000.0001) %MON obc_S_vVel_Int               =   0.0000000000000E+00
(PID.TID 0000.0001) %MON obc_E_theta_max              =   6.9683400000000E-01
(PID.TID 0000.0001) %MON obc_E_theta_min              =  -6.9683400000000E-01
(PID.TID 0000.0001) %MON obc_E_theta_mean             =   2.6223424911571E-14
(PID.TID 0000.0001) %MON obc_E_theta_sd               =   4.5618475594441E-01
(PID.TID 0000.0001) %MON obc_W_theta_max              =   6.9683400000000E-01
(PID.TID 0000.0001) %MON obc_W_theta_min              =  -6.9683400000000E-01
(PID.TID 0000.0001) %MON obc_W_theta_mean             =   2.6226075434540E-14
(PID.TID 0000.0001) %MON obc_W_theta_sd               =   4.5618475594441E-01
(PID.TID 0000.0001) %MON obc_N_theta_max              =   6.9683400000000E-01
(PID.TID 0000.0001) %MON obc_N_theta_min              =  -6.9683400000000E-01
(PID.TID 0000.0001) %MON obc_N_theta_mean             =   5.0183265503355E-05
(PID.TID 0000.0001) %MON obc_N_theta_sd               =   4.5616285086401E-01
(PID.TID 0000.0001) %MON obc_S_theta_max              =   6.9683400000000E-01
(PID.TID 0000.0001) %MON obc_S_theta_min              =  -6.9683400000000E-01
(PID.TID 0000.0001) %MON obc_S_theta_mean             =   5.0183265503355E-05
(PID.TID 0000.0001) %MON obc_S_theta_sd               =   4.5616285086401E-01
(PID.TID 0000.0001) // =======================================================
(PID.TID 0000.0001) // End OBCS MONITOR field statistics
(PID.TID 0000.0001) // =======================================================
 EXTERNAL_FIELDS_LOAD,         4 : iP,iLd,i0,i1=    1    2    1    2 ; Wght=  0.8888888889  0.1111111111
 OBCS_FIELDS_LOAD,         5 : iP,iLd,i0,i1=    1    2    1    2 ; Wght=  0.8611111111  0.1388888889
 cg2d: Sum(rhs),rhsMax =  -3.05870950634543E+01  2.27576542831324E-01
(PID.TID 0000.0001)                    cg2d_init_res =    5.51693214004566E+00
(PID.TID 0000.0001)                       cg2d_iters =   195
(PID.TID 0000.0001)                         cg2d_res =    9.93612082969349E-14
(PID.TID 0000.0001) // =======================================================
(PID.TID 0000.0001) // Begin MONITOR dynamic field statistics
(PID.TID 0000.0001) // =======================================================
(PID.TID 0000.0001) %MON time_tsnumber                =                     5
(PID.TID 0000.0001) %MON time_secondsf                =   1.3800000000000E+04
(PID.TID 0000.0001) %MON dynstat_eta_max              =   1.2712722163989E+00
(PID.TID 0000.0001) %MON dynstat_eta_min              =  -9.7806544850418E-01
(PID.TID 0000.0001) %MON dynstat_eta_mean             =   1.4457264957264E-01
(PID.TID 0000.0001) %MON dynstat_eta_sd               =   6.3467553326992E-01
(PID.TID 0000.0001) %MON dynstat_eta_del2             =   3.7810136586435E-05
(PID.TID 0000.0001) %MON dynstat_uvel_max             =   7.2892804877209E-01
(PID.TID 0000.0001) %MON dynstat_uvel_min             =   2.4227165474413E-01
(PID.TID 0000.0001) %MON dynstat_uvel_mean            =   2.9458994790810E-01
(PID.TID 0000.0001) %MON dynstat_uvel_sd              =   4.7211261407892E-02
(PID.TID 0000.0001) %MON dynstat_uvel_del2            =   1.0283793713541E-04
(PID.TID 0000.0001) %MON dynstat_vvel_max             =   1.4187671981791E-01
(PID.TID 0000.0001) %MON dynstat_vvel_min             =  -2.1038068333068E-01
(PID.TID 0000.0001) %MON dynstat_vvel_mean            =   4.2878575475166E-04
(PID.TID 0000.0001) %MON dynstat_vvel_sd              =   2.4615440620861E-02
(PID.TID 0000.0001) %MON dynstat_vvel_del2            =   3.0355941443449E-05
(PID.TID 0000.0001) %MON dynstat_wvel_max             =   2.5869550583553E-02
(PID.TID 0000.0001) %MON dynstat_wvel_min             =  -2.4317909180981E-02
(PID.TID 0000.0001) %MON dynstat_wvel_mean            =   9.6657326831816E-07
(PID.TID 0000.0001) %MON dynstat_wvel_sd              =   2.3359281472602E-03
(PID.TID 0000.0001) %MON dynstat_wvel_del2            =   6.4164982068965E-06
(PID.TID 0000.0001) %MON dynstat_theta_max            =   7.0425282181541E-01
(PID.TID 0000.0001) %MON dynstat_theta_min            =  -7.1144656535937E-01
(PID.TID 0000.0001) %MON dynstat_theta_mean           =   2.0289333616173E-02
(PID.TID 0000.0001) %MON dynstat_theta_sd             =   4.5212001608153E-01
(PID.TID 0000.0001) %MON dynstat_theta_del2           =   7.3886648682279E-06
(PID.TID 0000.0001) %MON dynstat_salt_max             =   3.5184407875197E+01
(PID.TID 0000.0001) %MON dynstat_salt_min             =   3.4999165407306E+01
(PID.TID 0000.0001) %MON dynstat_salt_mean            =   3.5002579738280E+01
(PID.TID 0000.0001) %MON dynstat_salt_sd              =   2.1181785302676E-02
(PID.TID 0000.0001) %MON dynstat_salt_del2            =   4.9276955645567E-04
(PID.TID 0000.0001) %MON advcfl_uvel_max              =   8.7471365852650E-02
(PID.TID 0000.0001) %MON advcfl_vvel_max              =   2.5245681999682E-02
(PID.TID 0000.0001) %MON advcfl_wvel_max              =   2.7594187289123E-02
(PID.TID 0000.0001) %MON advcfl_W_hf_max              =   6.7869217990765E-02
(PID.TID 0000.0001) %MON pe_b_mean                    =   4.8379060693552E-04
(PID.TID 0000.0001) %MON ke_max                       =   2.6407393441590E-01
(PID.TID 0000.0001) %MON ke_mean                      =   4.4826057667683E-02
(PID.TID 0000.0001) %MON ke_vol                       =   3.3508060184313E+14
(PID.TID 0000.0001) %MON vort_r_min                   =  -1.8674179723384E-04
(PID.TID 0000.0001) %MON vort_r_max                   =   1.6953365375761E-04
(PID.TID 0000.0001) %MON vort_a_mean                  =   1.0000000000000E-04
(PID.TID 0000.0001) %MON vort_a_sd                    =   8.4380571256978E-06
(PID.TID 0000.0001) %MON vort_p_mean                  =   1.0161724849013E-04
(PID.TID 0000.0001) %MON vort_p_sd                    =   3.7341299102990E-05
(PID.TID 0000.0001) %MON surfExpan_theta_mean         =   1.8638796153945E-06
(PID.TID 0000.0001) %MON surfExpan_salt_mean          =   1.4578167433322E-03
(PID.TID 0000.0001) // =======================================================
(PID.TID 0000.0001) // End MONITOR dynamic field statistics
(PID.TID 0000.0001) // =======================================================
 EXTERNAL_FIELDS_LOAD,         5 : iP,iLd,i0,i1=    1    2    1    2 ; Wght=  0.8611111111  0.1388888889
 OBCS_FIELDS_LOAD,         6 : iP,iLd,i0,i1=    1    2    1    2 ; Wght=  0.8333333333  0.1666666667
 cg2d: Sum(rhs),rhsMax =  -4.48928025316618E+01  1.79866056531656E-01
(PID.TID 0000.0001)                    cg2d_init_res =    2.19519848573302E+00
(PID.TID 0000.0001)                       cg2d_iters =   196
(PID.TID 0000.0001)                         cg2d_res =    7.88700539165128E-14
(PID.TID 0000.0001) // =======================================================
(PID.TID 0000.0001) // Begin MONITOR dynamic field statistics
(PID.TID 0000.0001) // =======================================================
(PID.TID 0000.0001) %MON time_tsnumber                =                     6
(PID.TID 0000.0001) %MON time_secondsf                =   1.4400000000000E+04
(PID.TID 0000.0001) %MON dynstat_eta_max              =   1.4039158633913E+00
(PID.TID 0000.0001) %MON dynstat_eta_min              =  -1.0682076301896E+00
(PID.TID 0000.0001) %MON dynstat_eta_mean             =   1.6770512820512E-01
(PID.TID 0000.0001) %MON dynstat_eta_sd               =   7.2720948853506E-01
(PID.TID 0000.0001) %MON dynstat_eta_del2             =   4.1936382283831E-05
(PID.TID 0000.0001) %MON dynstat_uvel_max             =   6.3352580341693E-01
(PID.TID 0000.0001) %MON dynstat_uvel_min             =   2.0379130617135E-01
(PID.TID 0000.0001) %MON dynstat_uvel_mean            =   2.6716678127954E-01
(PID.TID 0000.0001) %MON dynstat_uvel_sd              =   3.3391583386658E-02
(PID.TID 0000.0001) %MON dynstat_uvel_del2            =   5.5178281961999E-05
(PID.TID 0000.0001) %MON dynstat_vvel_max             =   1.3368378863196E-01
(PID.TID 0000.0001) %MON dynstat_vvel_min             =  -2.3039713485744E-01
(PID.TID 0000.0001) %MON dynstat_vvel_mean            =   6.9460957747991E-04
(PID.TID 0000.0001) %MON dynstat_vvel_sd              =   2.2270087838885E-02
(PID.TID 0000.0001) %MON dynstat_vvel_del2            =   3.3024583597707E-05
(PID.TID 0000.0001) %MON dynstat_wvel_max             =   2.1862737662427E-02
(PID.TID 0000.0001) %MON dynstat_wvel_min             =  -2.0162357150963E-02
(PID.TID 0000.0001) %MON dynstat_wvel_mean            =   1.0732659852359E-06
(PID.TID 0000.0001) %MON dynstat_wvel_sd              =   1.9925701358883E-03
(PID.TID 0000.0001) %MON dynstat_wvel_del2            =   5.4493627095383E-06
(PID.TID 0000.0001) %MON dynstat_theta_max            =   7.0563334193590E-01
(PID.TID 0000.0001) %MON dynstat_theta_min            =  -7.1432522319245E-01
(PID.TID 0000.0001) %MON dynstat_theta_mean           =   2.0289214768710E-02
(PID.TID 0000.0001) %MON dynstat_theta_sd             =   4.5211983098272E-01
(PID.TID 0000.0001) %MON dynstat_theta_del2           =   8.4172304559244E-06
(PID.TID 0000.0001) %MON dynstat_salt_max             =   3.5216278569288E+01
(PID.TID 0000.0001) %MON dynstat_salt_min             =   3.4999223163792E+01
(PID.TID 0000.0001) %MON dynstat_salt_mean            =   3.5003083598655E+01
(PID.TID 0000.0001) %MON dynstat_salt_sd              =   2.4851002534689E-02
(PID.TID 0000.0001) %MON dynstat_salt_del2            =   4.5624757999075E-04
(PID.TID 0000.0001) %MON advcfl_uvel_max              =   7.6023096410032E-02
(PID.TID 0000.0001) %MON advcfl_vvel_max              =   2.7647656182892E-02
(PID.TID 0000.0001) %MON advcfl_wvel_max              =   2.3320253506588E-02
(PID.TID 0000.0001) %MON advcfl_W_hf_max              =   5.8095398190528E-02
(PID.TID 0000.0001) %MON pe_b_mean                    =   6.3592331458696E-04
(PID.TID 0000.0001) %MON ke_max                       =   1.9336905216670E-01
(PID.TID 0000.0001) %MON ke_mean                      =   3.6430699663163E-02
(PID.TID 0000.0001) %MON ke_vol                       =   3.3508255650979E+14
(PID.TID 0000.0001) %MON vort_r_min                   =  -1.7278458765487E-04
(PID.TID 0000.0001) %MON vort_r_max                   =   1.5219007520978E-04
(PID.TID 0000.0001) %MON vort_a_mean                  =   1.0000000000000E-04
(PID.TID 0000.0001) %MON vort_a_sd                    =   7.0338505134855E-06
(PID.TID 0000.0001) %MON vort_p_mean                  =   1.0161670869460E-04
(PID.TID 0000.0001) %MON vort_p_sd                    =   3.5363787389037E-05
(PID.TID 0000.0001) %MON surfExpan_theta_mean         =   1.6208965006005E-06
(PID.TID 0000.0001) %MON surfExpan_salt_mean          =   1.3488030714833E-03
(PID.TID 0000.0001) // =======================================================
(PID.TID 0000.0001) // End MONITOR dynamic field statistics
(PID.TID 0000.0001) // =======================================================
(PID.TID 0000.0001) // =======================================================
(PID.TID 0000.0001) // Begin OBCS MONITOR field statistics
(PID.TID 0000.0001) // =======================================================
(PID.TID 0000.0001) %MON obc_time_tsnumber            =                     6
(PID.TID 0000.0001) %MON obc_time_secondsf            =   1.4400000000000E+04
(PID.TID 0000.0001) %MON obc_E_uVel_max               =   2.4833333333333E-01
(PID.TID 0000.0001) %MON obc_E_uVel_min               =   2.4833333333333E-01
(PID.TID 0000.0001) %MON obc_E_uVel_mean              =   2.4833333333333E-01
(PID.TID 0000.0001) %MON obc_E_uVel_sd                =   1.1175870895386E-08
(PID.TID 0000.0001) %MON obc_E_uVel_Int               =   2.2349641296295E+08
(PID.TID 0000.0001) %MON obc_W_uVel_max               =   2.5166666666667E-01
(PID.TID 0000.0001) %MON obc_W_uVel_min               =   2.5166666666667E-01
(PID.TID 0000.0001) %MON obc_W_uVel_mean              =   2.5166666666667E-01
(PID.TID 0000.0001) %MON obc_W_uVel_sd                =   1.3938759963117E-08
(PID.TID 0000.0001) %MON obc_W_uVel_Int               =   2.2650363518518E+08
(PID.TID 0000.0001) %MON obc_N_vVel_max               =   0.0000000000000E+00
(PID.TID 0000.0001) %MON obc_N_vVel_min               =   0.0000000000000E+00
(PID.TID 0000.0001) %MON obc_N_vVel_mean              =   0.0000000000000E+00
(PID.TID 0000.0001) %MON obc_N_vVel_sd                =   0.0000000000000E+00
(PID.TID 0000.0001) %MON obc_N_vVel_Int               =   0.0000000000000E+00
(PID.TID 0000.0001) %MON obc_S_vVel_max               =   0.0000000000000E+00
(PID.TID 0000.0001) %MON obc_S_vVel_min               =   0.0000000000000E+00
(PID.TID 0000.0001) %MON obc_S_vVel_mean              =   0.0000000000000E+00
(PID.TID 0000.0001) %MON obc_S_vVel_sd                =   0.0000000000000E+00
(PID.TID 0000.0001) %MON obc_S_vVel_Int               =   0.0000000000000E+00
(PID.TID 0000.0001) %MON obc_E_theta_max              =   6.9683400000000E-01
(PID.TID 0000.0001) %MON obc_E_theta_min              =  -6.9683400000000E-01
(PID.TID 0000.0001) %MON obc_E_theta_mean             =   2.6215599015317E-14
(PID.TID 0000.0001) %MON obc_E_theta_sd               =   4.5618475594441E-01
(PID.TID 0000.0001) %MON obc_W_theta_max              =   6.9683400000000E-01
(PID.TID 0000.0001) %MON obc_W_theta_min              =  -6.9683400000000E-01
(PID.TID 0000.0001) %MON obc_W_theta_mean             =   2.6239851107094E-14
(PID.TID 0000.0001) %MON obc_W_theta_sd               =   4.5618475594441E-01
(PID.TID 0000.0001) %MON obc_N_theta_max              =   6.9683400000000E-01
(PID.TID 0000.0001) %MON obc_N_theta_min              =  -6.9683400000000E-01
(PID.TID 0000.0001) %MON obc_N_theta_mean             =   5.0183265503355E-05
(PID.TID 0000.0001) %MON obc_N_theta_sd               =   4.5616285086401E-01
(PID.TID 0000.0001) %MON obc_S_theta_max              =   6.9683400000000E-01
(PID.TID 0000.0001) %MON obc_S_theta_min              =  -6.9683400000000E-01
(PID.TID 0000.0001) %MON obc_S_theta_mean             =   5.0183265503355E-05
(PID.TID 0000.0001) %MON obc_S_theta_sd               =   4.5616285086401E-01
(PID.TID 0000.0001) // =======================================================
(PID.TID 0000.0001) // End OBCS MONITOR field statistics
(PID.TID 0000.0001) // =======================================================
 EXTERNAL_FIELDS_LOAD,         6 : iP,iLd,i0,i1=    1    2    1    2 ; Wght=  0.8333333333  0.1666666667
 OBCS_FIELDS_LOAD,         7 : iP,iLd,i0,i1=    1    2    1    2 ; Wght=  0.8055555556  0.1944444444
 cg2d: Sum(rhs),rhsMax =  -6.07785482240362E+01  1.49652785038854E-01
(PID.TID 0000.0001)                    cg2d_init_res =    3.54009656920910E+00
(PID.TID 0000.0001)                       cg2d_iters =   196
(PID.TID 0000.0001)                         cg2d_res =    8.54397323375440E-14
(PID.TID 0000.0001) // =======================================================
(PID.TID 0000.0001) // Begin MONITOR dynamic field statistics
(PID.TID 0000.0001) // =======================================================
(PID.TID 0000.0001) %MON time_tsnumber                =                     7
(PID.TID 0000.0001) %MON time_secondsf                =   1.5000000000000E+04
(PID.TID 0000.0001) %MON dynstat_eta_max              =   1.0146947884647E+00
(PID.TID 0000.0001) %MON dynstat_eta_min              =  -6.4140299556000E-01
(PID.TID 0000.0001) %MON dynstat_eta_mean             =   1.8891025641025E-01
(PID.TID 0000.0001) %MON dynstat_eta_sd               =   4.4796776866655E-01
(PID.TID 0000.0001) %MON dynstat_eta_del2             =   2.5574788682235E-05
(PID.TID 0000.0001) %MON dynstat_uvel_max             =   5.7543683523002E-01
(PID.TID 0000.0001) %MON dynstat_uvel_min             =   1.7874315231695E-01
(PID.TID 0000.0001) %MON dynstat_uvel_mean            =   2.5060372650907E-01
(PID.TID 0000.0001) %MON dynstat_uvel_sd              =   2.6715792288621E-02
(PID.TID 0000.0001) %MON dynstat_uvel_del2            =   3.5859643699171E-05
(PID.TID 0000.0001) %MON dynstat_vvel_max             =   1.2930257311347E-01
(PID.TID 0000.0001) %MON dynstat_vvel_min             =  -2.5380859411663E-01
(PID.TID 0000.0001) %MON dynstat_vvel_mean            =   5.0569332030831E-04
(PID.TID 0000.0001) %MON dynstat_vvel_sd              =   2.1277462138630E-02
(PID.TID 0000.0001) %MON dynstat_vvel_del2            =   3.5248979992373E-05
(PID.TID 0000.0001) %MON dynstat_wvel_max             =   1.9265414032951E-02
(PID.TID 0000.0001) %MON dynstat_wvel_min             =  -1.7492516415110E-02
(PID.TID 0000.0001) %MON dynstat_wvel_mean            =   9.9289835877604E-07
(PID.TID 0000.0001) %MON dynstat_wvel_sd              =   1.7813171991890E-03
(PID.TID 0000.0001) %MON dynstat_wvel_del2            =   4.9257998494735E-06
(PID.TID 0000.0001) %MON dynstat_theta_max            =   7.0661713962320E-01
(PID.TID 0000.0001) %MON dynstat_theta_min            =  -7.1642353822499E-01
(PID.TID 0000.0001) %MON dynstat_theta_mean           =   2.0289125834937E-02
(PID.TID 0000.0001) %MON dynstat_theta_sd             =   4.5211967638428E-01
(PID.TID 0000.0001) %MON dynstat_theta_del2           =   9.0082079485527E-06
(PID.TID 0000.0001) %MON dynstat_salt_max             =   3.5246660921739E+01
(PID.TID 0000.0001) %MON dynstat_salt_min             =   3.4999481014875E+01
(PID.TID 0000.0001) %MON dynstat_salt_mean            =   3.5003583783060E+01
(PID.TID 0000.0001) %MON dynstat_salt_sd              =   2.8363336280528E-02
(PID.TID 0000.0001) %MON dynstat_salt_del2            =   4.2339877246573E-04
(PID.TID 0000.0001) %MON advcfl_uvel_max              =   6.9052420227603E-02
(PID.TID 0000.0001) %MON advcfl_vvel_max              =   3.0457031293996E-02
(PID.TID 0000.0001) %MON advcfl_wvel_max              =   2.0549774968481E-02
(PID.TID 0000.0001) %MON advcfl_W_hf_max              =   5.1582581743077E-02
(PID.TID 0000.0001) %MON pe_b_mean                    =   2.6987179123947E-04
(PID.TID 0000.0001) %MON ke_max                       =   1.5704097090587E-01
(PID.TID 0000.0001) %MON ke_mean                      =   3.1876574891216E-02
(PID.TID 0000.0001) %MON ke_vol                       =   3.3508436084313E+14
(PID.TID 0000.0001) %MON vort_r_min                   =  -1.6584908586933E-04
(PID.TID 0000.0001) %MON vort_r_max                   =   1.4321743519029E-04
(PID.TID 0000.0001) %MON vort_a_mean                  =   1.0000000000000E-04
(PID.TID 0000.0001) %MON vort_a_sd                    =   6.3290502031113E-06
(PID.TID 0000.0001) %MON vort_p_mean                  =   1.0161620998861E-04
(PID.TID 0000.0001) %MON vort_p_sd                    =   3.4332570345123E-05
(PID.TID 0000.0001) %MON surfExpan_theta_mean         =   1.1769939835757E-06
(PID.TID 0000.0001) %MON surfExpan_salt_mean          =   1.2392763227603E-03
(PID.TID 0000.0001) // =======================================================
(PID.TID 0000.0001) // End MONITOR dynamic field statistics
(PID.TID 0000.0001) // =======================================================
 EXTERNAL_FIELDS_LOAD,         7 : iP,iLd,i0,i1=    1    2    1    2 ; Wght=  0.8055555556  0.1944444444
 OBCS_FIELDS_LOAD,         8 : iP,iLd,i0,i1=    1    2    1    2 ; Wght=  0.7777777778  0.2222222222
 cg2d: Sum(rhs),rhsMax =  -7.21622347672983E+01  1.38907398656386E-01
(PID.TID 0000.0001)                    cg2d_init_res =    4.21378906322781E+00
(PID.TID 0000.0001)                       cg2d_iters =   196
(PID.TID 0000.0001)                         cg2d_res =    9.09908490079107E-14
(PID.TID 0000.0001) // =======================================================
(PID.TID 0000.0001) // Begin MONITOR dynamic field statistics
(PID.TID 0000.0001) // =======================================================
(PID.TID 0000.0001) %MON time_tsnumber                =                     8
(PID.TID 0000.0001) %MON time_secondsf                =   1.5600000000000E+04
(PID.TID 0000.0001) %MON dynstat_eta_max              =   5.4237713915331E-01
(PID.TID 0000.0001) %MON dynstat_eta_min              =  -1.3239547312562E-01
(PID.TID 0000.0001) %MON dynstat_eta_mean             =   2.0818803418803E-01
(PID.TID 0000.0001) %MON dynstat_eta_sd               =   1.5209074139304E-01
(PID.TID 0000.0001) %MON dynstat_eta_del2             =   9.5131081099737E-06
(PID.TID 0000.0001) %MON dynstat_uvel_max             =   5.6571084118497E-01
(PID.TID 0000.0001) %MON dynstat_uvel_min             =   1.7119212621658E-01
(PID.TID 0000.0001) %MON dynstat_uvel_mean            =   2.4761585084815E-01
(PID.TID 0000.0001) %MON dynstat_uvel_sd              =   2.5771184460509E-02
(PID.TID 0000.0001) %MON dynstat_uvel_del2            =   3.5245914535728E-05
(PID.TID 0000.0001) %MON dynstat_vvel_max             =   1.3711541689972E-01
(PID.TID 0000.0001) %MON dynstat_vvel_min             =  -2.7981876481168E-01
(PID.TID 0000.0001) %MON dynstat_vvel_mean            =   1.7011629604739E-04
(PID.TID 0000.0001) %MON dynstat_vvel_sd              =   2.1792042468548E-02
(PID.TID 0000.0001) %MON dynstat_vvel_del2            =   3.7522370843355E-05
(PID.TID 0000.0001) %MON dynstat_wvel_max             =   1.8506003345483E-02
(PID.TID 0000.0001) %MON dynstat_wvel_min             =  -1.6623993430081E-02
(PID.TID 0000.0001) %MON dynstat_wvel_mean            =   8.3441274294761E-07
(PID.TID 0000.0001) %MON dynstat_wvel_sd              =   1.7282829528709E-03
(PID.TID 0000.0001) %MON dynstat_wvel_del2            =   4.7360608004797E-06
(PID.TID 0000.0001) %MON dynstat_theta_max            =   7.0742729149444E-01
(PID.TID 0000.0001) %MON dynstat_theta_min            =  -7.1817903043300E-01
(PID.TID 0000.0001) %MON dynstat_theta_mean           =   2.0289062817770E-02
(PID.TID 0000.0001) %MON dynstat_theta_sd             =   4.5211956779101E-01
(PID.TID 0000.0001) %MON dynstat_theta_del2           =   9.4387287571958E-06
(PID.TID 0000.0001) %MON dynstat_salt_max             =   3.5275630156077E+01
(PID.TID 0000.0001) %MON dynstat_salt_min             =   3.4999703642331E+01
(PID.TID 0000.0001) %MON dynstat_salt_mean            =   3.5004080583126E+01
(PID.TID 0000.0001) %MON dynstat_salt_sd              =   3.1731644433961E-02
(PID.TID 0000.0001) %MON dynstat_salt_del2            =   3.9390678615188E-04
(PID.TID 0000.0001) %MON advcfl_uvel_max              =   6.7885300942196E-02
(PID.TID 0000.0001) %MON advcfl_vvel_max              =   3.3578251777401E-02
(PID.TID 0000.0001) %MON advcfl_wvel_max              =   1.9739736901849E-02
(PID.TID 0000.0001) %MON advcfl_W_hf_max              =   4.9594645720544E-02
(PID.TID 0000.0001) %MON pe_b_mean                    =   7.5897619126833E-05
(PID.TID 0000.0001) %MON ke_max                       =   1.5088362696943E-01
(PID.TID 0000.0001) %MON ke_mean                      =   3.1111263594683E-02
(PID.TID 0000.0001) %MON ke_vol                       =   3.3508601484313E+14
(PID.TID 0000.0001) %MON vort_r_min                   =  -1.6910592119933E-04
(PID.TID 0000.0001) %MON vort_r_max                   =   1.4477314588074E-04
(PID.TID 0000.0001) %MON vort_a_mean                  =   1.0000000000000E-04
(PID.TID 0000.0001) %MON vort_a_sd                    =   6.2674192042631E-06
(PID.TID 0000.0001) %MON vort_p_mean                  =   1.0161575270512E-04
(PID.TID 0000.0001) %MON vort_p_sd                    =   3.4223954240584E-05
(PID.TID 0000.0001) %MON surfExpan_theta_mean         =   8.5406144778516E-07
(PID.TID 0000.0001) %MON surfExpan_salt_mean          =   1.1277953178880E-03
(PID.TID 0000.0001) // =======================================================
(PID.TID 0000.0001) // End MONITOR dynamic field statistics
(PID.TID 0000.0001) // =======================================================
(PID.TID 0000.0001) // =======================================================
(PID.TID 0000.0001) // Begin OBCS MONITOR field statistics
(PID.TID 0000.0001) // =======================================================
(PID.TID 0000.0001) %MON obc_time_tsnumber            =                     8
(PID.TID 0000.0001) %MON obc_time_secondsf            =   1.5600000000000E+04
(PID.TID 0000.0001) %MON obc_E_uVel_max               =   2.4861111111111E-01
(PID.TID 0000.0001) %MON obc_E_uVel_min               =   2.4861111111111E-01
(PID.TID 0000.0001) %MON obc_E_uVel_mean              =   2.4861111111111E-01
(PID.TID 0000.0001) %MON obc_E_uVel_sd                =  -1.1796119636642E-16
(PID.TID 0000.0001) %MON obc_E_uVel_Int               =   2.2374696141975E+08
(PID.TID 0000.0001) %MON obc_W_uVel_max               =   2.5138888888889E-01
(PID.TID 0000.0001) %MON obc_W_uVel_min               =   2.5138888888889E-01
(PID.TID 0000.0001) %MON obc_W_uVel_mean              =   2.5138888888889E-01
(PID.TID 0000.0001) %MON obc_W_uVel_sd                =  -3.8857805861880E-16
(PID.TID 0000.0001) %MON obc_W_uVel_Int               =   2.2625307253086E+08
(PID.TID 0000.0001) %MON obc_N_vVel_max               =   0.0000000000000E+00
(PID.TID 0000.0001) %MON obc_N_vVel_min               =   0.0000000000000E+00
(PID.TID 0000.0001) %MON obc_N_vVel_mean              =   0.0000000000000E+00
(PID.TID 0000.0001) %MON obc_N_vVel_sd                =   0.0000000000000E+00
(PID.TID 0000.0001) %MON obc_N_vVel_Int               =   0.0000000000000E+00
(PID.TID 0000.0001) %MON obc_S_vVel_max               =   0.0000000000000E+00
(PID.TID 0000.0001) %MON obc_S_vVel_min               =   0.0000000000000E+00
(PID.TID 0000.0001) %MON obc_S_vVel_mean              =   0.0000000000000E+00
(PID.TID 0000.0001) %MON obc_S_vVel_sd                =   0.0000000000000E+00
(PID.TID 0000.0001) %MON obc_S_vVel_Int               =   0.0000000000000E+00
(PID.TID 0000.0001) %MON obc_E_theta_max              =   6.9683400000000E-01
(PID.TID 0000.0001) %MON obc_E_theta_min              =  -6.9683400000000E-01
(PID.TID 0000.0001) %MON obc_E_theta_mean             =   2.6215275580336E-14
(PID.TID 0000.0001) %MON obc_E_theta_sd               =   4.5618475594441E-01
(PID.TID 0000.0001) %MON obc_W_theta_max              =   6.9683400000000E-01
(PID.TID 0000.0001) %MON obc_W_theta_min              =  -6.9683400000000E-01
(PID.TID 0000.0001) %MON obc_W_theta_mean             =   2.6244313748404E-14
(PID.TID 0000.0001) %MON obc_W_theta_sd               =   4.5618475594441E-01
(PID.TID 0000.0001) %MON obc_N_theta_max              =   6.9683400000000E-01
(PID.TID 0000.0001) %MON obc_N_theta_min              =  -6.9683400000000E-01
(PID.TID 0000.0001) %MON obc_N_theta_mean             =   5.0183265503355E-05
(PID.TID 0000.0001) %MON obc_N_theta_sd               =   4.5616285086401E-01
(PID.TID 0000.0001) %MON obc_S_theta_max              =   6.9683400000000E-01
(PID.TID 0000.0001) %MON obc_S_theta_min              =  -6.9683400000000E-01
(PID.TID 0000.0001) %MON obc_S_theta_mean             =   5.0183265503355E-05
(PID.TID 0000.0001) %MON obc_S_theta_sd               =   4.5616285086401E-01
(PID.TID 0000.0001) // =======================================================
(PID.TID 0000.0001) // End OBCS MONITOR field statistics
(PID.TID 0000.0001) // =======================================================
 EXTERNAL_FIELDS_LOAD,         8 : iP,iLd,i0,i1=    1    2    1    2 ; Wght=  0.7777777778  0.2222222222
 OBCS_FIELDS_LOAD,         9 : iP,iLd,i0,i1=    1    2    1    2 ; Wght=  0.7500000000  0.2500000000
 cg2d: Sum(rhs),rhsMax =  -7.57560178941215E+01  1.43345169943278E-01
(PID.TID 0000.0001)                    cg2d_init_res =    2.56934712733559E+00
(PID.TID 0000.0001)                       cg2d_iters =   192
(PID.TID 0000.0001)                         cg2d_res =    8.74024961630452E-14
(PID.TID 0000.0001) // =======================================================
(PID.TID 0000.0001) // Begin MONITOR dynamic field statistics
(PID.TID 0000.0001) // =======================================================
(PID.TID 0000.0001) %MON time_tsnumber                =                     9
(PID.TID 0000.0001) %MON time_secondsf                =   1.6200000000000E+04
(PID.TID 0000.0001) %MON dynstat_eta_max              =   6.6657270464127E-01
(PID.TID 0000.0001) %MON dynstat_eta_min              =  -2.1737396655163E-01
(PID.TID 0000.0001) %MON dynstat_eta_mean             =   2.2553846153845E-01
(PID.TID 0000.0001) %MON dynstat_eta_sd               =   2.0433407474307E-01
(PID.TID 0000.0001) %MON dynstat_eta_del2             =   1.2757983279088E-05
(PID.TID 0000.0001) %MON dynstat_uvel_max             =   5.8671231934621E-01
(PID.TID 0000.0001) %MON dynstat_uvel_min             =   1.7429322260943E-01
(PID.TID 0000.0001) %MON dynstat_uvel_mean            =   2.5318472386555E-01
(PID.TID 0000.0001) %MON dynstat_uvel_sd              =   2.7694263244759E-02
(PID.TID 0000.0001) %MON dynstat_uvel_del2            =   3.9987543896726E-05
(PID.TID 0000.0001) %MON dynstat_vvel_max             =   1.4764093942626E-01
(PID.TID 0000.0001) %MON dynstat_vvel_min             =  -3.0962308408130E-01
(PID.TID 0000.0001) %MON dynstat_vvel_mean            =  -8.5444630751328E-05
(PID.TID 0000.0001) %MON dynstat_vvel_sd              =   2.3250729004593E-02
(PID.TID 0000.0001) %MON dynstat_vvel_del2            =   4.0092802959379E-05
(PID.TID 0000.0001) %MON dynstat_wvel_max             =   1.8924030208544E-02
(PID.TID 0000.0001) %MON dynstat_wvel_min             =  -1.6872603420535E-02
(PID.TID 0000.0001) %MON dynstat_wvel_mean            =   7.0033596585786E-07
(PID.TID 0000.0001) %MON dynstat_wvel_sd              =   1.7723566145422E-03
(PID.TID 0000.0001) %MON dynstat_wvel_del2            =   4.7266899994578E-06
(PID.TID 0000.0001) %MON dynstat_theta_max            =   7.0820914718062E-01
(PID.TID 0000.0001) %MON dynstat_theta_min            =  -7.1991465015546E-01
(PID.TID 0000.0001) %MON dynstat_theta_mean           =   2.0288998741123E-02
(PID.TID 0000.0001) %MON dynstat_theta_sd             =   4.5211948349007E-01
(PID.TID 0000.0001) %MON dynstat_theta_del2           =   9.8826952500384E-06
(PID.TID 0000.0001) %MON dynstat_salt_max             =   3.5303274251614E+01
(PID.TID 0000.0001) %MON dynstat_salt_min             =   3.4999646943875E+01
(PID.TID 0000.0001) %MON dynstat_salt_mean            =   3.5004574216159E+01
(PID.TID 0000.0001) %MON dynstat_salt_sd              =   3.4967268705800E-02
(PID.TID 0000.0001) %MON dynstat_salt_del2            =   3.6747902528505E-04
(PID.TID 0000.0001) %MON advcfl_uvel_max              =   7.0405478321545E-02
(PID.TID 0000.0001) %MON advcfl_vvel_max              =   3.7154770089756E-02
(PID.TID 0000.0001) %MON advcfl_wvel_max              =   2.0185632222447E-02
(PID.TID 0000.0001) %MON advcfl_W_hf_max              =   5.0534190263979E-02
(PID.TID 0000.0001) %MON pe_b_mean                    =   1.0574995585330E-04
(PID.TID 0000.0001) %MON ke_max                       =   1.6161232896466E-01
(PID.TID 0000.0001) %MON ke_mean                      =   3.2604661768713E-02
(PID.TID 0000.0001) %MON ke_vol                       =   3.3508751850979E+14
(PID.TID 0000.0001) %MON vort_r_min                   =  -1.7926708068550E-04
(PID.TID 0000.0001) %MON vort_r_max                   =   1.5302591017083E-04
(PID.TID 0000.0001) %MON vort_a_mean                  =   1.0000000000000E-04
(PID.TID 0000.0001) %MON vort_a_sd                    =   6.5718809369296E-06
(PID.TID 0000.0001) %MON vort_p_mean                  =   1.0161533711314E-04
(PID.TID 0000.0001) %MON vort_p_sd                    =   3.4664953154881E-05
(PID.TID 0000.0001) %MON surfExpan_theta_mean         =   7.6531805793588E-07
(PID.TID 0000.0001) %MON surfExpan_salt_mean          =   1.0144581550389E-03
(PID.TID 0000.0001) // =======================================================
(PID.TID 0000.0001) // End MONITOR dynamic field statistics
(PID.TID 0000.0001) // =======================================================
 EXTERNAL_FIELDS_LOAD,         9 : iP,iLd,i0,i1=    1    2    1    2 ; Wght=  0.7500000000  0.2500000000
 OBCS_FIELDS_LOAD,        10 : iP,iLd,i0,i1=    1    2    1    2 ; Wght=  0.7222222222  0.2777777778
 cg2d: Sum(rhs),rhsMax =  -7.57039331284593E+01  1.53252960214956E-01
(PID.TID 0000.0001)                    cg2d_init_res =    7.95054456522168E-01
(PID.TID 0000.0001)                       cg2d_iters =   194
(PID.TID 0000.0001)                         cg2d_res =    7.67665956236617E-14
(PID.TID 0000.0001) // =======================================================
(PID.TID 0000.0001) // Begin MONITOR dynamic field statistics
(PID.TID 0000.0001) // =======================================================
(PID.TID 0000.0001) %MON time_tsnumber                =                    10
(PID.TID 0000.0001) %MON time_secondsf                =   1.6800000000000E+04
(PID.TID 0000.0001) %MON dynstat_eta_max              =   7.5756917704971E-01
(PID.TID 0000.0001) %MON dynstat_eta_min              =  -2.7668087426757E-01
(PID.TID 0000.0001) %MON dynstat_eta_mean             =   2.4096153846153E-01
(PID.TID 0000.0001) %MON dynstat_eta_sd               =   2.4735304480986E-01
(PID.TID 0000.0001) %MON dynstat_eta_del2             =   1.5324322789301E-05
(PID.TID 0000.0001) %MON dynstat_uvel_max             =   6.1438625226264E-01
(PID.TID 0000.0001) %MON dynstat_uvel_min             =   1.7948715998160E-01
(PID.TID 0000.0001) %MON dynstat_uvel_mean            =   2.6060530974473E-01
(PID.TID 0000.0001) %MON dynstat_uvel_sd              =   3.0651112489868E-02
(PID.TID 0000.0001) %MON dynstat_uvel_del2            =   4.8402675795634E-05
(PID.TID 0000.0001) %MON dynstat_vvel_max             =   1.5906097665686E-01
(PID.TID 0000.0001) %MON dynstat_vvel_min             =  -3.4211039493308E-01
(PID.TID 0000.0001) %MON dynstat_vvel_mean            =  -1.7850523570354E-04
(PID.TID 0000.0001) %MON dynstat_vvel_sd              =   2.4985567098681E-02
(PID.TID 0000.0001) %MON dynstat_vvel_del2            =   4.2904908055881E-05
(PID.TID 0000.0001) %MON dynstat_wvel_max             =   1.9614927068827E-02
(PID.TID 0000.0001) %MON dynstat_wvel_min             =  -1.7353625882305E-02
(PID.TID 0000.0001) %MON dynstat_wvel_mean            =   6.0406153132383E-07
(PID.TID 0000.0001) %MON dynstat_wvel_sd              =   1.8367985217125E-03
(PID.TID 0000.0001) %MON dynstat_wvel_del2            =   4.7963617958337E-06
(PID.TID 0000.0001) %MON dynstat_theta_max            =   7.0902724370973E-01
(PID.TID 0000.0001) %MON dynstat_theta_min            =  -7.2174417687075E-01
(PID.TID 0000.0001) %MON dynstat_theta_mean           =   2.0288924115405E-02
(PID.TID 0000.0001) %MON dynstat_theta_sd             =   4.5211940039022E-01
(PID.TID 0000.0001) %MON dynstat_theta_del2           =   1.0388188665067E-05
(PID.TID 0000.0001) %MON dynstat_salt_max             =   3.5329669248222E+01
(PID.TID 0000.0001) %MON dynstat_salt_min             =   3.4999610325983E+01
(PID.TID 0000.0001) %MON dynstat_salt_mean            =   3.5005064764836E+01
(PID.TID 0000.0001) %MON dynstat_salt_sd              =   3.8079700555610E-02
(PID.TID 0000.0001) %MON dynstat_salt_del2            =   3.4385245821281E-04
(PID.TID 0000.0001) %MON advcfl_uvel_max              =   7.3726350271516E-02
(PID.TID 0000.0001) %MON advcfl_vvel_max              =   4.1053247391970E-02
(PID.TID 0000.0001) %MON advcfl_wvel_max              =   2.0922588873415E-02
(PID.TID 0000.0001) %MON advcfl_W_hf_max              =   5.2120532655197E-02
(PID.TID 0000.0001) %MON pe_b_mean                    =   1.3614992270468E-04
(PID.TID 0000.0001) %MON ke_max                       =   1.7783292980347E-01
(PID.TID 0000.0001) %MON ke_mean                      =   3.4659268080028E-02
(PID.TID 0000.0001) %MON ke_vol                       =   3.3508887184313E+14
(PID.TID 0000.0001) %MON vort_r_min                   =  -1.9129932943914E-04
(PID.TID 0000.0001) %MON vort_r_max                   =   1.6275320186437E-04
(PID.TID 0000.0001) %MON vort_a_mean                  =   1.0000000000000E-04
(PID.TID 0000.0001) %MON vort_a_sd                    =   6.9770675705482E-06
(PID.TID 0000.0001) %MON vort_p_mean                  =   1.0161496321199E-04
(PID.TID 0000.0001) %MON vort_p_sd                    =   3.5251693424135E-05
(PID.TID 0000.0001) %MON surfExpan_theta_mean         =   8.0862309157113E-07
(PID.TID 0000.0001) %MON surfExpan_salt_mean          =   9.0034797048906E-04
(PID.TID 0000.0001) // =======================================================
(PID.TID 0000.0001) // End MONITOR dynamic field statistics
(PID.TID 0000.0001) // =======================================================
(PID.TID 0000.0001) // =======================================================
(PID.TID 0000.0001) // Begin OBCS MONITOR field statistics
(PID.TID 0000.0001) // =======================================================
(PID.TID 0000.0001) %MON obc_time_tsnumber            =                    10
(PID.TID 0000.0001) %MON obc_time_secondsf            =   1.6800000000000E+04
(PID.TID 0000.0001) %MON obc_E_uVel_max               =   2.4888888888889E-01
(PID.TID 0000.0001) %MON obc_E_uVel_min               =   2.4888888888889E-01
(PID.TID 0000.0001) %MON obc_E_uVel_mean              =   2.4888888888889E-01
(PID.TID 0000.0001) %MON obc_E_uVel_sd                =  -2.5673907444457E-16
(PID.TID 0000.0001) %MON obc_E_uVel_Int               =   2.2399751111110E+08
(PID.TID 0000.0001) %MON obc_W_uVel_max               =   2.5111111111111E-01
(PID.TID 0000.0001) %MON obc_W_uVel_min               =   2.5111111111111E-01
(PID.TID 0000.0001) %MON obc_W_uVel_mean              =   2.5111111111111E-01
(PID.TID 0000.0001) %MON obc_W_uVel_sd                =  -9.7144514654701E-17
(PID.TID 0000.0001) %MON obc_W_uVel_Int               =   2.2600251111110E+08
(PID.TID 0000.0001) %MON obc_N_vVel_max               =   0.0000000000000E+00
(PID.TID 0000.0001) %MON obc_N_vVel_min               =   0.0000000000000E+00
(PID.TID 0000.0001) %MON obc_N_vVel_mean              =   0.0000000000000E+00
(PID.TID 0000.0001) %MON obc_N_vVel_sd                =   0.0000000000000E+00
(PID.TID 0000.0001) %MON obc_N_vVel_Int               =   0.0000000000000E+00
(PID.TID 0000.0001) %MON obc_S_vVel_max               =   0.0000000000000E+00
(PID.TID 0000.0001) %MON obc_S_vVel_min               =   0.0000000000000E+00
(PID.TID 0000.0001) %MON obc_S_vVel_mean              =   0.0000000000000E+00
(PID.TID 0000.0001) %MON obc_S_vVel_sd                =   0.0000000000000E+00
(PID.TID 0000.0001) %MON obc_S_vVel_Int               =   0.0000000000000E+00
(PID.TID 0000.0001) %MON obc_E_theta_max              =   6.9683400000000E-01
(PID.TID 0000.0001) %MON obc_E_theta_min              =  -6.9683400000000E-01
(PID.TID 0000.0001) %MON obc_E_theta_mean             =   2.6204345299776E-14
(PID.TID 0000.0001) %MON obc_E_theta_sd               =   4.5618475594441E-01
(PID.TID 0000.0001) %MON obc_W_theta_max              =   6.9683400000000E-01
(PID.TID 0000.0001) %MON obc_W_theta_min              =  -6.9683400000000E-01
(PID.TID 0000.0001) %MON obc_W_theta_mean             =   2.6249552505274E-14
(PID.TID 0000.0001) %MON obc_W_theta_sd               =   4.5618475594441E-01
(PID.TID 0000.0001) %MON obc_N_theta_max              =   6.9683400000000E-01
(PID.TID 0000.0001) %MON obc_N_theta_min              =  -6.9683400000000E-01
(PID.TID 0000.0001) %MON obc_N_theta_mean             =   5.0183265503355E-05
(PID.TID 0000.0001) %MON obc_N_theta_sd               =   4.5616285086401E-01
(PID.TID 0000.0001) %MON obc_S_theta_max              =   6.9683400000000E-01
(PID.TID 0000.0001) %MON obc_S_theta_min              =  -6.9683400000000E-01
(PID.TID 0000.0001) %MON obc_S_theta_mean             =   5.0183265503355E-05
(PID.TID 0000.0001) %MON obc_S_theta_sd               =   4.5616285086401E-01
(PID.TID 0000.0001) // =======================================================
(PID.TID 0000.0001) // End OBCS MONITOR field statistics
(PID.TID 0000.0001) // =======================================================
(PID.TID 0000.0001) %CHECKPOINT        10 ckptA
(PID.TID 0000.0001)   Seconds in section "ALL                    [THE_MODEL_MAIN]":
(PID.TID 0000.0001)           User time:   2.2300000000000000
(PID.TID 0000.0001)         System time:  2.99999999999999989E-002
(PID.TID 0000.0001)     Wall clock time:   2.2938280105590820
(PID.TID 0000.0001)          No. starts:           1
(PID.TID 0000.0001)           No. stops:           1
(PID.TID 0000.0001)   Seconds in section "INITIALISE_FIXED       [THE_MODEL_MAIN]":
(PID.TID 0000.0001)           User time:  4.00000000000000008E-002
(PID.TID 0000.0001)         System time:  1.00000000000000002E-002
(PID.TID 0000.0001)     Wall clock time:  6.91180229187011719E-002
(PID.TID 0000.0001)          No. starts:           1
(PID.TID 0000.0001)           No. stops:           1
(PID.TID 0000.0001)   Seconds in section "THE_MAIN_LOOP          [THE_MODEL_MAIN]":
(PID.TID 0000.0001)           User time:   2.1899999999999999
(PID.TID 0000.0001)         System time:  1.99999999999999969E-002
(PID.TID 0000.0001)     Wall clock time:   2.2246699333190918
(PID.TID 0000.0001)          No. starts:           1
(PID.TID 0000.0001)           No. stops:           1
(PID.TID 0000.0001)   Seconds in section "INITIALISE_VARIA    [THE_MAIN_LOOP]":
(PID.TID 0000.0001)           User time:  6.00000000000000047E-002
(PID.TID 0000.0001)         System time:  1.00000000000000002E-002
(PID.TID 0000.0001)     Wall clock time:  7.28788375854492188E-002
(PID.TID 0000.0001)          No. starts:           1
(PID.TID 0000.0001)           No. stops:           1
(PID.TID 0000.0001)   Seconds in section "MAIN LOOP           [THE_MAIN_LOOP]":
(PID.TID 0000.0001)           User time:   2.1299999999999999
(PID.TID 0000.0001)         System time:  9.99999999999999847E-003
(PID.TID 0000.0001)     Wall clock time:   2.1517651081085205
(PID.TID 0000.0001)          No. starts:           1
(PID.TID 0000.0001)           No. stops:           1
(PID.TID 0000.0001)   Seconds in section "FORWARD_STEP        [THE_MAIN_LOOP]":
(PID.TID 0000.0001)           User time:   2.1299999999999990
(PID.TID 0000.0001)         System time:  9.99999999999999847E-003
(PID.TID 0000.0001)     Wall clock time:   2.1516656875610352
(PID.TID 0000.0001)          No. starts:          10
(PID.TID 0000.0001)           No. stops:          10
(PID.TID 0000.0001)   Seconds in section "UPDATE_R_STAR       [FORWARD_STEP]":
(PID.TID 0000.0001)           User time:  7.99999999999996270E-002
(PID.TID 0000.0001)         System time:   0.0000000000000000
(PID.TID 0000.0001)     Wall clock time:  5.66062927246093750E-002
(PID.TID 0000.0001)          No. starts:          20
(PID.TID 0000.0001)           No. stops:          20
(PID.TID 0000.0001)   Seconds in section "LOAD_FIELDS_DRIVER  [FORWARD_STEP]":
(PID.TID 0000.0001)           User time:   0.0000000000000000
(PID.TID 0000.0001)         System time:   0.0000000000000000
(PID.TID 0000.0001)     Wall clock time:  1.09314918518066406E-003
(PID.TID 0000.0001)          No. starts:          10
(PID.TID 0000.0001)           No. stops:          10
(PID.TID 0000.0001)   Seconds in section "EXTERNAL_FLDS_LOAD [LOAD_FLDS_DRIVER]":
(PID.TID 0000.0001)           User time:   0.0000000000000000
(PID.TID 0000.0001)         System time:   0.0000000000000000
(PID.TID 0000.0001)     Wall clock time:  9.19103622436523438E-004
(PID.TID 0000.0001)          No. starts:          10
(PID.TID 0000.0001)           No. stops:          10
(PID.TID 0000.0001)   Seconds in section "DO_ATMOSPHERIC_PHYS [FORWARD_STEP]":
(PID.TID 0000.0001)           User time:   0.0000000000000000
(PID.TID 0000.0001)         System time:   0.0000000000000000
(PID.TID 0000.0001)     Wall clock time:  8.89301300048828125E-005
(PID.TID 0000.0001)          No. starts:          10
(PID.TID 0000.0001)           No. stops:          10
(PID.TID 0000.0001)   Seconds in section "DO_OCEANIC_PHYS     [FORWARD_STEP]":
(PID.TID 0000.0001)           User time:   0.0000000000000000
(PID.TID 0000.0001)         System time:   0.0000000000000000
(PID.TID 0000.0001)     Wall clock time:  1.34701728820800781E-002
(PID.TID 0000.0001)          No. starts:          10
(PID.TID 0000.0001)           No. stops:          10
(PID.TID 0000.0001)   Seconds in section "THERMODYNAMICS      [FORWARD_STEP]":
(PID.TID 0000.0001)           User time:  0.30000000000000027
(PID.TID 0000.0001)         System time:   0.0000000000000000
(PID.TID 0000.0001)     Wall clock time:  0.30126023292541504
(PID.TID 0000.0001)          No. starts:          10
(PID.TID 0000.0001)           No. stops:          10
(PID.TID 0000.0001)   Seconds in section "DYNAMICS            [FORWARD_STEP]":
(PID.TID 0000.0001)           User time:  0.50999999999999979
(PID.TID 0000.0001)         System time:   0.0000000000000000
(PID.TID 0000.0001)     Wall clock time:  0.52429580688476563
(PID.TID 0000.0001)          No. starts:          10
(PID.TID 0000.0001)           No. stops:          10
(PID.TID 0000.0001)   Seconds in section "UPDATE_CG2D         [FORWARD_STEP]":
(PID.TID 0000.0001)           User time:  9.99999999999978684E-003
(PID.TID 0000.0001)         System time:   0.0000000000000000
(PID.TID 0000.0001)     Wall clock time:  1.38959884643554688E-002
(PID.TID 0000.0001)          No. starts:          10
(PID.TID 0000.0001)           No. stops:          10
(PID.TID 0000.0001)   Seconds in section "SOLVE_FOR_PRESSURE  [FORWARD_STEP]":
(PID.TID 0000.0001)           User time:  0.91000000000000014
(PID.TID 0000.0001)         System time:   0.0000000000000000
(PID.TID 0000.0001)     Wall clock time:  0.91486310958862305
(PID.TID 0000.0001)          No. starts:          10
(PID.TID 0000.0001)           No. stops:          10
(PID.TID 0000.0001)   Seconds in section "MOM_CORRECTION_STEP [FORWARD_STEP]":
(PID.TID 0000.0001)           User time:  6.99999999999998401E-002
(PID.TID 0000.0001)         System time:   0.0000000000000000
(PID.TID 0000.0001)     Wall clock time:  6.60278797149658203E-002
(PID.TID 0000.0001)          No. starts:          10
(PID.TID 0000.0001)           No. stops:          10
(PID.TID 0000.0001)   Seconds in section "UPDATE_ETAH         [FORWARD_STEP]":
(PID.TID 0000.0001)           User time:   0.0000000000000000
(PID.TID 0000.0001)         System time:   0.0000000000000000
(PID.TID 0000.0001)     Wall clock time:  1.10149383544921875E-003
(PID.TID 0000.0001)          No. starts:          10
(PID.TID 0000.0001)           No. stops:          10
(PID.TID 0000.0001)   Seconds in section "CALC_R_STAR         [FORWARD_STEP]":
(PID.TID 0000.0001)           User time:  2.00000000000000178E-002
(PID.TID 0000.0001)         System time:   0.0000000000000000
(PID.TID 0000.0001)     Wall clock time:  9.41348075866699219E-003
(PID.TID 0000.0001)          No. starts:          10
(PID.TID 0000.0001)           No. stops:          10
(PID.TID 0000.0001)   Seconds in section "TRC_CORRECTION_STEP [FORWARD_STEP]":
(PID.TID 0000.0001)           User time:  1.00000000000002309E-002
(PID.TID 0000.0001)         System time:   0.0000000000000000
(PID.TID 0000.0001)     Wall clock time:  7.09366798400878906E-003
(PID.TID 0000.0001)          No. starts:          10
(PID.TID 0000.0001)           No. stops:          10
(PID.TID 0000.0001)   Seconds in section "BLOCKING_EXCHANGES  [FORWARD_STEP]":
(PID.TID 0000.0001)           User time:   0.0000000000000000
(PID.TID 0000.0001)         System time:   0.0000000000000000
(PID.TID 0000.0001)     Wall clock time:  1.05900764465332031E-002
(PID.TID 0000.0001)          No. starts:          10
(PID.TID 0000.0001)           No. stops:          10
(PID.TID 0000.0001)   Seconds in section "MONITOR             [FORWARD_STEP]":
(PID.TID 0000.0001)           User time:  0.20000000000000018
(PID.TID 0000.0001)         System time:   0.0000000000000000
(PID.TID 0000.0001)     Wall clock time:  0.20106220245361328
(PID.TID 0000.0001)          No. starts:          10
(PID.TID 0000.0001)           No. stops:          10
(PID.TID 0000.0001)   Seconds in section "DO_THE_MODEL_IO     [FORWARD_STEP]":
(PID.TID 0000.0001)           User time:   0.0000000000000000
(PID.TID 0000.0001)         System time:   0.0000000000000000
(PID.TID 0000.0001)     Wall clock time:  1.47740840911865234E-002
(PID.TID 0000.0001)          No. starts:          10
(PID.TID 0000.0001)           No. stops:          10
(PID.TID 0000.0001)   Seconds in section "DO_WRITE_PICKUP     [FORWARD_STEP]":
(PID.TID 0000.0001)           User time:  2.00000000000000178E-002
(PID.TID 0000.0001)         System time:  9.99999999999999847E-003
(PID.TID 0000.0001)     Wall clock time:  1.44202709197998047E-002
(PID.TID 0000.0001)          No. starts:          10
(PID.TID 0000.0001)           No. stops:          10
(PID.TID 0000.0001) // ======================================================
(PID.TID 0000.0001) // Tile <-> Tile communication statistics
(PID.TID 0000.0001) // ======================================================
(PID.TID 0000.0001) // o Tile number: 000001
(PID.TID 0000.0001) //         No. X exchanges =              0
(PID.TID 0000.0001) //            Max. X spins =              0
(PID.TID 0000.0001) //            Min. X spins =     1000000000
(PID.TID 0000.0001) //          Total. X spins =              0
(PID.TID 0000.0001) //            Avg. X spins =       0.00E+00
(PID.TID 0000.0001) //         No. Y exchanges =              0
(PID.TID 0000.0001) //            Max. Y spins =              0
(PID.TID 0000.0001) //            Min. Y spins =     1000000000
(PID.TID 0000.0001) //          Total. Y spins =              0
(PID.TID 0000.0001) //            Avg. Y spins =       0.00E+00
(PID.TID 0000.0001) // o Tile number: 000002
(PID.TID 0000.0001) //         No. X exchanges =              0
(PID.TID 0000.0001) //            Max. X spins =              0
(PID.TID 0000.0001) //            Min. X spins =     1000000000
(PID.TID 0000.0001) //          Total. X spins =              0
(PID.TID 0000.0001) //            Avg. X spins =       0.00E+00
(PID.TID 0000.0001) //         No. Y exchanges =              0
(PID.TID 0000.0001) //            Max. Y spins =              0
(PID.TID 0000.0001) //            Min. Y spins =     1000000000
(PID.TID 0000.0001) //          Total. Y spins =              0
(PID.TID 0000.0001) //            Avg. Y spins =       0.00E+00
(PID.TID 0000.0001) // o Tile number: 000003
(PID.TID 0000.0001) //         No. X exchanges =              0
(PID.TID 0000.0001) //            Max. X spins =              0
(PID.TID 0000.0001) //            Min. X spins =     1000000000
(PID.TID 0000.0001) //          Total. X spins =              0
(PID.TID 0000.0001) //            Avg. X spins =       0.00E+00
(PID.TID 0000.0001) //         No. Y exchanges =              0
(PID.TID 0000.0001) //            Max. Y spins =              0
(PID.TID 0000.0001) //            Min. Y spins =     1000000000
(PID.TID 0000.0001) //          Total. Y spins =              0
(PID.TID 0000.0001) //            Avg. Y spins =       0.00E+00
(PID.TID 0000.0001) // o Tile number: 000004
(PID.TID 0000.0001) //         No. X exchanges =              0
(PID.TID 0000.0001) //            Max. X spins =              0
(PID.TID 0000.0001) //            Min. X spins =     1000000000
(PID.TID 0000.0001) //          Total. X spins =              0
(PID.TID 0000.0001) //            Avg. X spins =       0.00E+00
(PID.TID 0000.0001) //         No. Y exchanges =              0
(PID.TID 0000.0001) //            Max. Y spins =              0
(PID.TID 0000.0001) //            Min. Y spins =     1000000000
(PID.TID 0000.0001) //          Total. Y spins =              0
(PID.TID 0000.0001) //            Avg. Y spins =       0.00E+00
(PID.TID 0000.0001) // o Thread number: 000001
(PID.TID 0000.0001) //            No. barriers =          14126
(PID.TID 0000.0001) //      Max. barrier spins =              1
(PID.TID 0000.0001) //      Min. barrier spins =              1
(PID.TID 0000.0001) //     Total barrier spins =          14126
(PID.TID 0000.0001) //      Avg. barrier spins =       1.00E+00
PROGRAM MAIN: Execution ended Normally
