(PID.TID 0000.0001) 
(PID.TID 0000.0001) // ======================================================
(PID.TID 0000.0001) //                      MITgcm UV
(PID.TID 0000.0001) //                      =========
(PID.TID 0000.0001) // ======================================================
(PID.TID 0000.0001) // execution environment starting up...
(PID.TID 0000.0001) 
(PID.TID 0000.0001) // MITgcmUV version:  checkpoint61y
(PID.TID 0000.0001) // Build user:        jmc
(PID.TID 0000.0001) // Build host:        faulks.csail.mit.edu
(PID.TID 0000.0001) // Build date:        Mon Nov 30 14:28:55 EST 2009
(PID.TID 0000.0001) 
(PID.TID 0000.0001) // =======================================================
(PID.TID 0000.0001) // Execution Environment parameter file "eedata"
(PID.TID 0000.0001) // =======================================================
(PID.TID 0000.0001) ># Example "eedata" file
(PID.TID 0000.0001) ># Lines beginning "#" are comments
(PID.TID 0000.0001) ># nTx - No. threads per process in X
(PID.TID 0000.0001) ># nTy - No. threads per process in Y
(PID.TID 0000.0001) > &EEPARMS
(PID.TID 0000.0001) > &
(PID.TID 0000.0001) ># Note: Some systems use & as the
(PID.TID 0000.0001) ># namelist terminator. Other systems
(PID.TID 0000.0001) ># use a / character (as shown here).
(PID.TID 0000.0001) 
(PID.TID 0000.0001) // =======================================================
(PID.TID 0000.0001) // Computational Grid Specification ( see files "SIZE.h" )
(PID.TID 0000.0001) //                                  ( and "eedata"       )
(PID.TID 0000.0001) // =======================================================
(PID.TID 0000.0001)      nPx =    1 ; /* No. processes in X */
(PID.TID 0000.0001)      nPy =    1 ; /* No. processes in Y */
(PID.TID 0000.0001)      nSx =    1 ; /* No. tiles in X per process */
(PID.TID 0000.0001)      nSy =    4 ; /* No. tiles in Y per process */
(PID.TID 0000.0001)      sNx =    1 ; /* Tile size in X */
(PID.TID 0000.0001)      sNy =   40 ; /* Tile size in Y */
(PID.TID 0000.0001)      OLx =    2 ; /* Tile overlap distance in X */
(PID.TID 0000.0001)      OLy =    2 ; /* Tile overlap distance in Y */
(PID.TID 0000.0001)      nTx =    1 ; /* No. threads in X per process */
(PID.TID 0000.0001)      nTy =    1 ; /* No. threads in Y per process */
(PID.TID 0000.0001)       Nr =  120 ; /* No. levels in the vertical   */
(PID.TID 0000.0001)       Nx =    1 ; /* Total domain size in X ( = nPx*nSx*sNx ) */
(PID.TID 0000.0001)       Ny =  160 ; /* Total domain size in Y ( = nPy*nSy*sNy ) */
(PID.TID 0000.0001)   nTiles =    4 ; /* Total no. tiles per process ( = nSx*nSy ) */
(PID.TID 0000.0001)   nProcs =    1 ; /* Total no. processes ( = nPx*nPy ) */
(PID.TID 0000.0001) nThreads =    1 ; /* Total no. threads per process ( = nTx*nTy ) */
(PID.TID 0000.0001) usingMPI =    F ; /* Flag used to control whether MPI is in use */
(PID.TID 0000.0001)                   /*  note: To execute a program with MPI calls */
(PID.TID 0000.0001)                   /*  it must be launched appropriately e.g     */
(PID.TID 0000.0001)                   /*  "mpirun -np 64 ......"                    */
(PID.TID 0000.0001) useCoupler=    F ;/* Flag used to control communications with   */
(PID.TID 0000.0001)                   /*  other model components, through a coupler */
(PID.TID 0000.0001) printMapIncludesZeros=    F ; /* print zeros in Std.Output maps */
(PID.TID 0000.0001) maxLengthPrt1D=   65 /* maxLength of 1D array printed to StdOut */
(PID.TID 0000.0001) 
(PID.TID 0000.0001) // ======================================================
(PID.TID 0000.0001) // Mapping of tiles to threads
(PID.TID 0000.0001) // ======================================================
(PID.TID 0000.0001) // -o- Thread   1, tiles (   1:   1,   1:   4)
(PID.TID 0000.0001) 
(PID.TID 0000.0001) // ======================================================
(PID.TID 0000.0001) // Tile <-> Tile connectvity table
(PID.TID 0000.0001) // ======================================================
(PID.TID 0000.0001) // Tile number: 000001 (process no. = 000001)
(PID.TID 0000.0001) //        WEST: Tile = 000001, Process = 000001, Comm = put
(PID.TID 0000.0001) //                bi = 000001, bj = 000001
(PID.TID 0000.0001) //        EAST: Tile = 000001, Process = 000001, Comm = put
(PID.TID 0000.0001) //                bi = 000001, bj = 000001
(PID.TID 0000.0001) //       SOUTH: Tile = 000004, Process = 000001, Comm = put
(PID.TID 0000.0001) //                bi = 000001, bj = 000004
(PID.TID 0000.0001) //       NORTH: Tile = 000002, Process = 000001, Comm = put
(PID.TID 0000.0001) //                bi = 000001, bj = 000002
(PID.TID 0000.0001) // Tile number: 000002 (process no. = 000001)
(PID.TID 0000.0001) //        WEST: Tile = 000002, Process = 000001, Comm = put
(PID.TID 0000.0001) //                bi = 000001, bj = 000002
(PID.TID 0000.0001) //        EAST: Tile = 000002, Process = 000001, Comm = put
(PID.TID 0000.0001) //                bi = 000001, bj = 000002
(PID.TID 0000.0001) //       SOUTH: Tile = 000001, Process = 000001, Comm = put
(PID.TID 0000.0001) //                bi = 000001, bj = 000001
(PID.TID 0000.0001) //       NORTH: Tile = 000003, Process = 000001, Comm = put
(PID.TID 0000.0001) //                bi = 000001, bj = 000003
(PID.TID 0000.0001) // Tile number: 000003 (process no. = 000001)
(PID.TID 0000.0001) //        WEST: Tile = 000003, Process = 000001, Comm = put
(PID.TID 0000.0001) //                bi = 000001, bj = 000003
(PID.TID 0000.0001) //        EAST: Tile = 000003, Process = 000001, Comm = put
(PID.TID 0000.0001) //                bi = 000001, bj = 000003
(PID.TID 0000.0001) //       SOUTH: Tile = 000002, Process = 000001, Comm = put
(PID.TID 0000.0001) //                bi = 000001, bj = 000002
(PID.TID 0000.0001) //       NORTH: Tile = 000004, Process = 000001, Comm = put
(PID.TID 0000.0001) //                bi = 000001, bj = 000004
(PID.TID 0000.0001) // Tile number: 000004 (process no. = 000001)
(PID.TID 0000.0001) //        WEST: Tile = 000004, Process = 000001, Comm = put
(PID.TID 0000.0001) //                bi = 000001, bj = 000004
(PID.TID 0000.0001) //        EAST: Tile = 000004, Process = 000001, Comm = put
(PID.TID 0000.0001) //                bi = 000001, bj = 000004
(PID.TID 0000.0001) //       SOUTH: Tile = 000003, Process = 000001, Comm = put
(PID.TID 0000.0001) //                bi = 000001, bj = 000003
(PID.TID 0000.0001) //       NORTH: Tile = 000001, Process = 000001, Comm = put
(PID.TID 0000.0001) //                bi = 000001, bj = 000001
(PID.TID 0000.0001) 
(PID.TID 0000.0001) DEBUG_MSG: ENTERED S/R THE_MODEL_MAIN
(PID.TID 0000.0001) DEBUG_MSG: CALLING S/R INITIALISE_FIXED
(PID.TID 0000.0001) // =======================================================
(PID.TID 0000.0001) // Model parameter file "data"
(PID.TID 0000.0001) // =======================================================
(PID.TID 0000.0001) ># Continuous equation parameters
(PID.TID 0000.0001) >#-note: rhoRefFile is used to turn on the anelastic formulation
(PID.TID 0000.0001) > &PARM01
(PID.TID 0000.0001) > rhoRefFile='rhoLin_x2.bin',
(PID.TID 0000.0001) > tRefFile='TRefFile.bin',
(PID.TID 0000.0001) > sRef=120*0.,
(PID.TID 0000.0001) > viscAh=1.E6,
(PID.TID 0000.0001) > viscAr=1.E6,
(PID.TID 0000.0001) > no_slip_sides=.FALSE.,
(PID.TID 0000.0001) > no_slip_bottom=.FALSE.,
(PID.TID 0000.0001) > diffKhT=1.E5,
(PID.TID 0000.0001) > diffKrT=1.E5,
(PID.TID 0000.0001) > rotationPeriod=86400.,
(PID.TID 0000.0001) > gravity=9.81,
(PID.TID 0000.0001) > rhoConst=1000.,
(PID.TID 0000.0001) > implicitFreeSurface=.TRUE.,
(PID.TID 0000.0001) > implicitDiffusion=.TRUE.,
(PID.TID 0000.0001) > implicitViscosity=.TRUE.,
(PID.TID 0000.0001) > tempAdvScheme=77,
(PID.TID 0000.0001) > staggerTimeStep=.TRUE.,
(PID.TID 0000.0001) > saltStepping=.FALSE.,
(PID.TID 0000.0001) > eosType='LINEAR',
(PID.TID 0000.0001) > nonHydrostatic=.TRUE.,
(PID.TID 0000.0001) > useNHMTerms=.TRUE.,
(PID.TID 0000.0001) > readBinaryPrec= 64,
(PID.TID 0000.0001) > writeBinaryPrec= 64,
(PID.TID 0000.0001) >#useSingleCpuIO=.TRUE.,
(PID.TID 0000.0001) >#debugLevel=-1,
(PID.TID 0000.0001) > debugMode=.FALSE.,
(PID.TID 0000.0001) > &
(PID.TID 0000.0001) >
(PID.TID 0000.0001) ># Elliptic solver parameters
(PID.TID 0000.0001) > &PARM02
(PID.TID 0000.0001) > cg2dMaxIters=1000,
(PID.TID 0000.0001) > cg2dTargetResidual=1.E-13,
(PID.TID 0000.0001) > cg3dMaxIters= 40,
(PID.TID 0000.0001) > cg3dTargetResidual=1.E-13,
(PID.TID 0000.0001) > &
(PID.TID 0000.0001) >
(PID.TID 0000.0001) ># Time stepping parameters
(PID.TID 0000.0001) > &PARM03
(PID.TID 0000.0001) > nIter0=0,
(PID.TID 0000.0001) > nTimeSteps=18,
(PID.TID 0000.0001) > deltaT=300.,
(PID.TID 0000.0001) > abEps=0.1,
(PID.TID 0000.0001) > pChkptFreq=86400.,
(PID.TID 0000.0001) > chkptFreq=0.,
(PID.TID 0000.0001) > dumpFreq=7200.,
(PID.TID 0000.0001) > monitorFreq=1.,
(PID.TID 0000.0001) > &
(PID.TID 0000.0001) >
(PID.TID 0000.0001) ># Gridding parameters
(PID.TID 0000.0001) > &PARM04
(PID.TID 0000.0001) > usingSphericalPolarGrid=.TRUE.,
(PID.TID 0000.0001) > deepAtmosphere=.TRUE.,
(PID.TID 0000.0001) > rSphere=6370.E+3,
(PID.TID 0000.0001) > delR=120*25.E+3,
(PID.TID 0000.0001) > delX=1*10.,
(PID.TID 0000.0001) > delY=160*1.,
(PID.TID 0000.0001) > ygOrigin=-80.,
(PID.TID 0000.0001) > &
(PID.TID 0000.0001) >
(PID.TID 0000.0001) ># Input datasets
(PID.TID 0000.0001) > &PARM05
(PID.TID 0000.0001) > bathyFile='bathymetry.bin',
(PID.TID 0000.0001) > hydrogThetaFile='init_temp.bin',
(PID.TID 0000.0001) > &
(PID.TID 0000.0001) 
(PID.TID 0000.0001) S/R INI_PARMS ; starts to read PARM01
(PID.TID 0000.0001) S/R INI_PARMS ; read PARM01 : OK
(PID.TID 0000.0001) S/R INI_PARMS ; starts to read PARM02
(PID.TID 0000.0001) S/R INI_PARMS ; read PARM02 : OK
(PID.TID 0000.0001) S/R INI_PARMS ; starts to read PARM03
(PID.TID 0000.0001) S/R INI_PARMS ; read PARM03 : OK
(PID.TID 0000.0001) S/R INI_PARMS ; starts to read PARM04
(PID.TID 0000.0001) S/R INI_PARMS ; read PARM04 : OK
(PID.TID 0000.0001) S/R INI_PARMS ; starts to read PARM05
(PID.TID 0000.0001) S/R INI_PARMS ; read PARM05 : OK
(PID.TID 0000.0001)  PACKAGES_BOOT: opening data.pkg
(PID.TID 0000.0001)  OPEN_COPY_DATA_FILE: opening file data.pkg
(PID.TID 0000.0001) // =======================================================
(PID.TID 0000.0001) // Parameter file "data.pkg"
(PID.TID 0000.0001) // =======================================================
(PID.TID 0000.0001) ># Packages
(PID.TID 0000.0001) > &PACKAGES
(PID.TID 0000.0001) > useDiagnostics=.TRUE.,
(PID.TID 0000.0001) > &
(PID.TID 0000.0001) 
(PID.TID 0000.0001)  PACKAGES_BOOT: finished reading data.pkg
(PID.TID 0000.0001)  DIAGNOSTICS_READPARMS: opening data.diagnostics
(PID.TID 0000.0001)  OPEN_COPY_DATA_FILE: opening file data.diagnostics
(PID.TID 0000.0001) // =======================================================
(PID.TID 0000.0001) // Parameter file "data.diagnostics"
(PID.TID 0000.0001) // =======================================================
(PID.TID 0000.0001) ># Diagnostic Package Choices
(PID.TID 0000.0001) >#-----------------
(PID.TID 0000.0001) ># for each output-stream:
(PID.TID 0000.0001) >#  filename(n) : prefix of the output file name (only 8.c long) for outp.stream n
(PID.TID 0000.0001) >#  frequency(n):< 0 : write snap-shot output every |frequency| seconds
(PID.TID 0000.0001) >#               > 0 : write time-average output every frequency seconds
(PID.TID 0000.0001) >#  timePhase(n)     : write at time = timePhase + multiple of |frequency|
(PID.TID 0000.0001) >#  averagingFreq(n) : frequency (in s) for periodic averaging interval
(PID.TID 0000.0001) >#  averagingPhase(n): phase     (in s) for periodic averaging interval
(PID.TID 0000.0001) >#  repeatCycle(n)   : number of averaging intervals in 1 cycle
(PID.TID 0000.0001) >#  levels(:,n) : list of levels to write to file (Notes: declared as REAL)
(PID.TID 0000.0001) >#                 when this entry is missing, select all common levels of this list
(PID.TID 0000.0001) >#  fields(:,n) : list of diagnostics fields (8.c) (see "available_diagnostics.log"
(PID.TID 0000.0001) >#                 file for the list of all available diag. in this particular config)
(PID.TID 0000.0001) >#-----------------
(PID.TID 0000.0001) > &DIAGNOSTICS_LIST
(PID.TID 0000.0001) ># diag_mnc     = .FALSE.,
(PID.TID 0000.0001) ># dumpAtLast   = .TRUE.,
(PID.TID 0000.0001) >#==============================
(PID.TID 0000.0001) >  frequency(1) = 86400.,
(PID.TID 0000.0001) >  fields(1,1) = 'RHOAnoma    ',
(PID.TID 0000.0001) >  filename(1) = 'Rho',
(PID.TID 0000.0001) >#-----------------
(PID.TID 0000.0001) >  frequency(2) = 86400.,
(PID.TID 0000.0001) >  fields(1,2) = 'PHIHYD    ',
(PID.TID 0000.0001) >  filename(2) = 'P0',
(PID.TID 0000.0001) >#-----------------
(PID.TID 0000.0001) >  frequency(3) = 86400.,
(PID.TID 0000.0001) >  fields(1,3) = 'DRHODR    ',
(PID.TID 0000.0001) >  filename(3) = 'N2',
(PID.TID 0000.0001) >#-----------------
(PID.TID 0000.0001) > &
(PID.TID 0000.0001) >
(PID.TID 0000.0001) ># Parameter for Diagnostics of per level statistics:
(PID.TID 0000.0001) >#-----------------
(PID.TID 0000.0001) ># for each output-stream:
(PID.TID 0000.0001) >#  stat_fname(n) : prefix of the output file name (only 8.c long) for outp.stream n
(PID.TID 0000.0001) >#  stat_freq(n):< 0 : write snap-shot output every |stat_freq| seconds
(PID.TID 0000.0001) >#               > 0 : write time-average output every stat_freq seconds
(PID.TID 0000.0001) >#  stat_phase(n)    : write at time = stat_phase + multiple of |stat_freq|
(PID.TID 0000.0001) >#  stat_region(:,n) : list of "regions" (default: 1 region only=global)
(PID.TID 0000.0001) >#  stat_fields(:,n) : list of diagnostics fields (8.c) (see "available_diagnostics.log"
(PID.TID 0000.0001) >#                 file for the list of all available diag. in this particular config)
(PID.TID 0000.0001) >#-----------------
(PID.TID 0000.0001) > &DIAG_STATIS_PARMS
(PID.TID 0000.0001) >#---
(PID.TID 0000.0001) > stat_fields(1,1)= 'ETAN    ','UVEL    ','VVEL    ','WVEL    ',
(PID.TID 0000.0001) >                   'THETA   ',
(PID.TID 0000.0001) >    stat_fname(1)= 'dynStDiag',
(PID.TID 0000.0001) >     stat_freq(1)= 1800.,
(PID.TID 0000.0001) > &
(PID.TID 0000.0001) 
(PID.TID 0000.0001) S/R DIAGNOSTICS_READPARMS, read namelist "diagnostics_list": start
(PID.TID 0000.0001) S/R DIAGNOSTICS_READPARMS, read namelist "diagnostics_list": OK
(PID.TID 0000.0001) S/R DIAGNOSTICS_READPARMS, read namelist "DIAG_STATIS_PARMS": start
(PID.TID 0000.0001) S/R DIAGNOSTICS_READPARMS, read namelist "DIAG_STATIS_PARMS": OK
(PID.TID 0000.0001) -----------------------------------------------------
(PID.TID 0000.0001)  DIAGNOSTICS_READPARMS: active diagnostics summary:
(PID.TID 0000.0001) -----------------------------------------------------
(PID.TID 0000.0001) Creating Output Stream: Rho
(PID.TID 0000.0001) Output Frequency:      86400.000000 ; Phase:           0.000000
(PID.TID 0000.0001)  Averaging Freq.:      86400.000000 , Phase:           0.000000 , Cycle:   1
(PID.TID 0000.0001)  missing value:  1.234567000000E+05 ; for integers:   123456789
(PID.TID 0000.0001)  Levels:    will be set later
(PID.TID 0000.0001)  Fields:    RHOAnoma
(PID.TID 0000.0001) Creating Output Stream: P0
(PID.TID 0000.0001) Output Frequency:      86400.000000 ; Phase:           0.000000
(PID.TID 0000.0001)  Averaging Freq.:      86400.000000 , Phase:           0.000000 , Cycle:   1
(PID.TID 0000.0001)  missing value:  1.234567000000E+05 ; for integers:   123456789
(PID.TID 0000.0001)  Levels:    will be set later
(PID.TID 0000.0001)  Fields:    PHIHYD
(PID.TID 0000.0001) Creating Output Stream: N2
(PID.TID 0000.0001) Output Frequency:      86400.000000 ; Phase:           0.000000
(PID.TID 0000.0001)  Averaging Freq.:      86400.000000 , Phase:           0.000000 , Cycle:   1
(PID.TID 0000.0001)  missing value:  1.234567000000E+05 ; for integers:   123456789
(PID.TID 0000.0001)  Levels:    will be set later
(PID.TID 0000.0001)  Fields:    DRHODR
(PID.TID 0000.0001) -----------------------------------------------------
(PID.TID 0000.0001)  DIAGNOSTICS_READPARMS: statistics diags. summary:
(PID.TID 0000.0001) Creating Stats. Output Stream: dynStDiag
(PID.TID 0000.0001) Output Frequency:       1800.000000 ; Phase:           0.000000
(PID.TID 0000.0001)  Regions:   0
(PID.TID 0000.0001)  Fields:    ETAN     UVEL     VVEL     WVEL     THETA
(PID.TID 0000.0001) -----------------------------------------------------
(PID.TID 0000.0001) 
(PID.TID 0000.0001) SET_PARMS: done
(PID.TID 0000.0001) Enter INI_VERTICAL_GRID: setInterFDr=    T ; setCenterDr=    F
(PID.TID 0000.0001) %MON XC_max                       =   5.0000000000000E+00
(PID.TID 0000.0001) %MON XC_min                       =   5.0000000000000E+00
(PID.TID 0000.0001) %MON XC_mean                      =   5.0000000000000E+00
(PID.TID 0000.0001) %MON XC_sd                        =   0.0000000000000E+00
(PID.TID 0000.0001) %MON XG_max                       =   0.0000000000000E+00
(PID.TID 0000.0001) %MON XG_min                       =   0.0000000000000E+00
(PID.TID 0000.0001) %MON XG_mean                      =   0.0000000000000E+00
(PID.TID 0000.0001) %MON XG_sd                        =   0.0000000000000E+00
(PID.TID 0000.0001) %MON DXC_max                      =   1.1117324005452E+06
(PID.TID 0000.0001) %MON DXC_min                      =   2.0260485279198E+05
(PID.TID 0000.0001) %MON DXC_mean                     =   7.8416312620425E+05
(PID.TID 0000.0001) %MON DXC_sd                       =   2.8072575688353E+05
(PID.TID 0000.0001) %MON DXF_max                      =   1.1117324005452E+06
(PID.TID 0000.0001) %MON DXF_min                      =   2.0260485279198E+05
(PID.TID 0000.0001) %MON DXF_mean                     =   7.8416312620425E+05
(PID.TID 0000.0001) %MON DXF_sd                       =   2.8072575688353E+05
(PID.TID 0000.0001) %MON DXG_max                      =   1.1117747335204E+06
(PID.TID 0000.0001) %MON DXG_min                      =   1.9305765645195E+05
(PID.TID 0000.0001) %MON DXG_mean                     =   7.8413326767521E+05
(PID.TID 0000.0001) %MON DXG_sd                       =   2.8078861897602E+05
(PID.TID 0000.0001) %MON DXV_max                      =   1.1117747335204E+06
(PID.TID 0000.0001) %MON DXV_min                      =   1.9305765645195E+05
(PID.TID 0000.0001) %MON DXV_mean                     =   7.8413326767521E+05
(PID.TID 0000.0001) %MON DXV_sd                       =   2.8078861897602E+05
(PID.TID 0000.0001) %MON YC_max                       =   7.9500000000000E+01
(PID.TID 0000.0001) %MON YC_min                       =  -7.9500000000000E+01
(PID.TID 0000.0001) %MON YC_mean                      =   0.0000000000000E+00
(PID.TID 0000.0001) %MON YC_sd                        =   4.6187119416565E+01
(PID.TID 0000.0001) %MON YG_max                       =   7.9000000000000E+01
(PID.TID 0000.0001) %MON YG_min                       =  -8.0000000000000E+01
(PID.TID 0000.0001) %MON YG_mean                      =  -5.0000000000000E-01
(PID.TID 0000.0001) %MON YG_sd                        =   4.6187119416565E+01
(PID.TID 0000.0001) %MON DYC_max                      =   1.1117747335204E+05
(PID.TID 0000.0001) %MON DYC_min                      =   1.1117747335204E+05
(PID.TID 0000.0001) %MON DYC_mean                     =   1.1117747335204E+05
(PID.TID 0000.0001) %MON DYC_sd                       =   2.9103830456734E-11
(PID.TID 0000.0001) %MON DYF_max                      =   1.1117747335204E+05
(PID.TID 0000.0001) %MON DYF_min                      =   1.1117747335204E+05
(PID.TID 0000.0001) %MON DYF_mean                     =   1.1117747335204E+05
(PID.TID 0000.0001) %MON DYF_sd                       =   2.9103830456734E-11
(PID.TID 0000.0001) %MON DYG_max                      =   1.1117747335204E+05
(PID.TID 0000.0001) %MON DYG_min                      =   1.1117747335204E+05
(PID.TID 0000.0001) %MON DYG_mean                     =   1.1117747335204E+05
(PID.TID 0000.0001) %MON DYG_sd                       =   2.9103830456734E-11
(PID.TID 0000.0001) %MON DYU_max                      =   1.1117747335204E+05
(PID.TID 0000.0001) %MON DYU_min                      =   1.1117747335204E+05
(PID.TID 0000.0001) %MON DYU_mean                     =   1.1117747335204E+05
(PID.TID 0000.0001) %MON DYU_sd                       =   2.9103830456734E-11
(PID.TID 0000.0001) %MON RA_max                       =   1.2359803056756E+11
(PID.TID 0000.0001) %MON RA_min                       =   2.2524809726008E+10
(PID.TID 0000.0001) %MON RA_mean                      =   8.7180168532477E+10
(PID.TID 0000.0001) %MON RA_sd                        =   3.1209984222261E+10
(PID.TID 0000.0001) %MON RAW_max                      =   1.2359803056756E+11
(PID.TID 0000.0001) %MON RAW_min                      =   2.2524809726008E+10
(PID.TID 0000.0001) %MON RAW_mean                     =   8.7180168532477E+10
(PID.TID 0000.0001) %MON RAW_sd                       =   3.1209984222261E+10
(PID.TID 0000.0001) %MON RAS_max                      =   1.2360273698104E+11
(PID.TID 0000.0001) %MON RAS_min                      =   2.1463390031403E+10
(PID.TID 0000.0001) %MON RAS_mean                     =   8.7176848978794E+10
(PID.TID 0000.0001) %MON RAS_sd                       =   3.1216972982169E+10
(PID.TID 0000.0001) %MON RAZ_max                      =   1.2360273698104E+11
(PID.TID 0000.0001) %MON RAZ_min                      =   2.1463390031403E+10
(PID.TID 0000.0001) %MON RAZ_mean                     =   8.7176848978794E+10
(PID.TID 0000.0001) %MON RAZ_sd                       =   3.1216972982169E+10
(PID.TID 0000.0001) %MON AngleCS_max                  =   1.0000000000000E+00
(PID.TID 0000.0001) %MON AngleCS_min                  =   1.0000000000000E+00
(PID.TID 0000.0001) %MON AngleCS_mean                 =   1.0000000000000E+00
(PID.TID 0000.0001) %MON AngleCS_sd                   =   0.0000000000000E+00
(PID.TID 0000.0001) %MON AngleSN_max                  =   0.0000000000000E+00
(PID.TID 0000.0001) %MON AngleSN_min                  =   0.0000000000000E+00
(PID.TID 0000.0001) %MON AngleSN_mean                 =   0.0000000000000E+00
(PID.TID 0000.0001) %MON AngleSN_sd                   =   0.0000000000000E+00
(PID.TID 0000.0001) S/R LOAD_REF_FILES: tRef loaded from file: TRefFile.bin
(PID.TID 0000.0001) S/R LOAD_REF_FILES: rho1Ref loaded from file: rhoLin_x2.bin
(PID.TID 0000.0001)  MDS_READ_FIELD: opening global file: bathymetry.bin
(PID.TID 0000.0001) // =======================================================
(PID.TID 0000.0001) // Field Model R_low (ini_masks_etc) at iteration          1
(PID.TID 0000.0001) // CMIN =         -3.000000000000000E+06
(PID.TID 0000.0001) // CMAX =         -3.000000000000000E+06
(PID.TID 0000.0001) // CINT =          0.000000000000000E+00
(PID.TID 0000.0001) // SYMBOLS (CMIN->CMAX): -abcdefghijklmnopqrstuvwxyz+
(PID.TID 0000.0001) //                  0.0: .
(PID.TID 0000.0001) // RANGE I (Lo:Hi:Step):(  -1:   3:   1)
(PID.TID 0000.0001) // RANGE J (Lo:Hi:Step):( 162:  -1:  -1)
(PID.TID 0000.0001) // RANGE K (Lo:Hi:Step):(   1:   1:   1)
(PID.TID 0000.0001) // =======================================================
(PID.TID 0000.0001) // =======================================================
(PID.TID 0000.0001) // END OF FIELD                                          =
(PID.TID 0000.0001) // =======================================================
(PID.TID 0000.0001) 
(PID.TID 0000.0001) // =======================================================
(PID.TID 0000.0001) // Field Model Ro_surf (ini_masks_etc) at iteration          1
(PID.TID 0000.0001) // CMIN =          1.000000000000000E+32
(PID.TID 0000.0001) // CMAX =         -1.000000000000000E+32
(PID.TID 0000.0001) // CINT =          0.000000000000000E+00
(PID.TID 0000.0001) // SYMBOLS (CMIN->CMAX): -abcdefghijklmnopqrstuvwxyz+
(PID.TID 0000.0001) //                  0.0: .
(PID.TID 0000.0001) // RANGE I (Lo:Hi:Step):(  -1:   3:   1)
(PID.TID 0000.0001) // RANGE J (Lo:Hi:Step):( 162:  -1:  -1)
(PID.TID 0000.0001) // RANGE K (Lo:Hi:Step):(   1:   1:   1)
(PID.TID 0000.0001) // =======================================================
(PID.TID 0000.0001) // =======================================================
(PID.TID 0000.0001) // END OF FIELD                                          =
(PID.TID 0000.0001) // =======================================================
(PID.TID 0000.0001) 
(PID.TID 0000.0001) // =======================================================
(PID.TID 0000.0001) // Field hFacC at iteration          1
(PID.TID 0000.0001) // CMIN =          1.000000000000000E+00
(PID.TID 0000.0001) // CMAX =          1.000000000000000E+00
(PID.TID 0000.0001) // CINT =          0.000000000000000E+00
(PID.TID 0000.0001) // SYMBOLS (CMIN->CMAX): -abcdefghijklmnopqrstuvwxyz+
(PID.TID 0000.0001) //                  0.0: .
(PID.TID 0000.0001) // RANGE I (Lo:Hi:Step):(  -1:   3:   1)
(PID.TID 0000.0001) // RANGE J (Lo:Hi:Step):( 162:  -1:  -1)
(PID.TID 0000.0001) // RANGE K (Lo:Hi:Step):(   1:   1:   1)
(PID.TID 0000.0001) // =======================================================
(PID.TID 0000.0001) // =======================================================
(PID.TID 0000.0001) // END OF FIELD                                          =
(PID.TID 0000.0001) // =======================================================
(PID.TID 0000.0001) 
(PID.TID 0000.0001) // =======================================================
(PID.TID 0000.0001) // Field hFacW at iteration          1
(PID.TID 0000.0001) // CMIN =          1.000000000000000E+00
(PID.TID 0000.0001) // CMAX =          1.000000000000000E+00
(PID.TID 0000.0001) // CINT =          0.000000000000000E+00
(PID.TID 0000.0001) // SYMBOLS (CMIN->CMAX): -abcdefghijklmnopqrstuvwxyz+
(PID.TID 0000.0001) //                  0.0: .
(PID.TID 0000.0001) // RANGE I (Lo:Hi:Step):(  -1:   3:   1)
(PID.TID 0000.0001) // RANGE J (Lo:Hi:Step):( 162:  -1:  -1)
(PID.TID 0000.0001) // RANGE K (Lo:Hi:Step):(   1:   1:   1)
(PID.TID 0000.0001) // =======================================================
(PID.TID 0000.0001) // =======================================================
(PID.TID 0000.0001) // END OF FIELD                                          =
(PID.TID 0000.0001) // =======================================================
(PID.TID 0000.0001) 
(PID.TID 0000.0001) // =======================================================
(PID.TID 0000.0001) // Field hFacS at iteration          1
(PID.TID 0000.0001) // CMIN =          1.000000000000000E+00
(PID.TID 0000.0001) // CMAX =          1.000000000000000E+00
(PID.TID 0000.0001) // CINT =          0.000000000000000E+00
(PID.TID 0000.0001) // SYMBOLS (CMIN->CMAX): -abcdefghijklmnopqrstuvwxyz+
(PID.TID 0000.0001) //                  0.0: .
(PID.TID 0000.0001) // RANGE I (Lo:Hi:Step):(  -1:   3:   1)
(PID.TID 0000.0001) // RANGE J (Lo:Hi:Step):( 162:  -1:  -1)
(PID.TID 0000.0001) // RANGE K (Lo:Hi:Step):(   1:   1:   1)
(PID.TID 0000.0001) // =======================================================
(PID.TID 0000.0001) // =======================================================
(PID.TID 0000.0001) // END OF FIELD                                          =
(PID.TID 0000.0001) // =======================================================
(PID.TID 0000.0001) 
(PID.TID 0000.0001) 
(PID.TID 0000.0001) // ===================================
(PID.TID 0000.0001) // GAD parameters :
(PID.TID 0000.0001) // ===================================
(PID.TID 0000.0001) tempAdvScheme =   /* Temp. Horiz.Advection scheme selector */
(PID.TID 0000.0001)                      77
(PID.TID 0000.0001)     ;
(PID.TID 0000.0001) tempVertAdvScheme =   /* Temp. Vert. Advection scheme selector */
(PID.TID 0000.0001)                      77
(PID.TID 0000.0001)     ;
(PID.TID 0000.0001) tempMultiDimAdvec =   /* use Muti-Dim Advec method for Temp */
(PID.TID 0000.0001)                   T
(PID.TID 0000.0001)     ;
(PID.TID 0000.0001) tempSOM_Advection = /* use 2nd Order Moment Advection for Temp */
(PID.TID 0000.0001)                   F
(PID.TID 0000.0001)     ;
(PID.TID 0000.0001) AdamsBashforthGt = /* apply Adams-Bashforth extrapolation on Gt */
(PID.TID 0000.0001)                   F
(PID.TID 0000.0001)     ;
(PID.TID 0000.0001) AdamsBashforth_T = /* apply Adams-Bashforth extrapolation on Temp */
(PID.TID 0000.0001)                   F
(PID.TID 0000.0001)     ;
(PID.TID 0000.0001) saltAdvScheme =   /* Salt. Horiz.advection scheme selector */
(PID.TID 0000.0001)                       2
(PID.TID 0000.0001)     ;
(PID.TID 0000.0001) saltVertAdvScheme =   /* Salt. Vert. Advection scheme selector */
(PID.TID 0000.0001)                       2
(PID.TID 0000.0001)     ;
(PID.TID 0000.0001) saltMultiDimAdvec =   /* use Muti-Dim Advec method for Salt */
(PID.TID 0000.0001)                   F
(PID.TID 0000.0001)     ;
(PID.TID 0000.0001) saltSOM_Advection = /* use 2nd Order Moment Advection for Salt */
(PID.TID 0000.0001)                   F
(PID.TID 0000.0001)     ;
(PID.TID 0000.0001) AdamsBashforthGs = /* apply Adams-Bashforth extrapolation on Gs */
(PID.TID 0000.0001)                   F
(PID.TID 0000.0001)     ;
(PID.TID 0000.0001) AdamsBashforth_S = /* apply Adams-Bashforth extrapolation on Salt */
(PID.TID 0000.0001)                   F
(PID.TID 0000.0001)     ;
(PID.TID 0000.0001) // ===================================
(PID.TID 0000.0001) ------------------------------------------------------------
(PID.TID 0000.0001) DIAGNOSTICS_SET_LEVELS: done
(PID.TID 0000.0001)  Total Nb of available Diagnostics: ndiagt=   174
(PID.TID 0000.0001)  write list of available Diagnostics to file: available_diagnostics.log
(PID.TID 0000.0001) SETDIAG: Allocate120 x  1 Levels for Diagnostic #    62 RHOAnoma
(PID.TID 0000.0001) SETDIAG: Allocate120 x  1 Levels for Diagnostic #    67 PHIHYD
(PID.TID 0000.0001) SETDIAG: Allocate120 x  1 Levels for Diagnostic #    73 DRHODR
(PID.TID 0000.0001)   space allocated for all diagnostics:     360 levels
(PID.TID 0000.0001) DIAGNOSTICS_SET_POINTERS: Set levels for Outp.Stream: Rho
(PID.TID 0000.0001)  Levels:       1.   2.   3.   4.   5.   6.   7.   8.   9.  10.  11.  12.  13.  14.  15.  16.  17.  18.  19.  20.
(PID.TID 0000.0001)  Levels:      21.  22.  23.  24.  25.  26.  27.  28.  29.  30.  31.  32.  33.  34.  35.  36.  37.  38.  39.  40.
(PID.TID 0000.0001)  Levels:      41.  42.  43.  44.  45.  46.  47.  48.  49.  50.  51.  52.  53.  54.  55.  56.  57.  58.  59.  60.
(PID.TID 0000.0001)  Levels:      61.  62.  63.  64.  65.  66.  67.  68.  69.  70.  71.  72.  73.  74.  75.  76.  77.  78.  79.  80.
(PID.TID 0000.0001)  Levels:      81.  82.  83.  84.  85.  86.  87.  88.  89.  90.  91.  92.  93.  94.  95.  96.  97.  98.  99. 100.
(PID.TID 0000.0001)  Levels:     101. 102. 103. 104. 105. 106. 107. 108. 109. 110. 111. 112. 113. 114. 115. 116. 117. 118. 119. 120.
(PID.TID 0000.0001) DIAGNOSTICS_SET_POINTERS: Set levels for Outp.Stream: P0
(PID.TID 0000.0001)  Levels:       1.   2.   3.   4.   5.   6.   7.   8.   9.  10.  11.  12.  13.  14.  15.  16.  17.  18.  19.  20.
(PID.TID 0000.0001)  Levels:      21.  22.  23.  24.  25.  26.  27.  28.  29.  30.  31.  32.  33.  34.  35.  36.  37.  38.  39.  40.
(PID.TID 0000.0001)  Levels:      41.  42.  43.  44.  45.  46.  47.  48.  49.  50.  51.  52.  53.  54.  55.  56.  57.  58.  59.  60.
(PID.TID 0000.0001)  Levels:      61.  62.  63.  64.  65.  66.  67.  68.  69.  70.  71.  72.  73.  74.  75.  76.  77.  78.  79.  80.
(PID.TID 0000.0001)  Levels:      81.  82.  83.  84.  85.  86.  87.  88.  89.  90.  91.  92.  93.  94.  95.  96.  97.  98.  99. 100.
(PID.TID 0000.0001)  Levels:     101. 102. 103. 104. 105. 106. 107. 108. 109. 110. 111. 112. 113. 114. 115. 116. 117. 118. 119. 120.
(PID.TID 0000.0001) DIAGNOSTICS_SET_POINTERS: Set levels for Outp.Stream: N2
(PID.TID 0000.0001)  Levels:       1.   2.   3.   4.   5.   6.   7.   8.   9.  10.  11.  12.  13.  14.  15.  16.  17.  18.  19.  20.
(PID.TID 0000.0001)  Levels:      21.  22.  23.  24.  25.  26.  27.  28.  29.  30.  31.  32.  33.  34.  35.  36.  37.  38.  39.  40.
(PID.TID 0000.0001)  Levels:      41.  42.  43.  44.  45.  46.  47.  48.  49.  50.  51.  52.  53.  54.  55.  56.  57.  58.  59.  60.
(PID.TID 0000.0001)  Levels:      61.  62.  63.  64.  65.  66.  67.  68.  69.  70.  71.  72.  73.  74.  75.  76.  77.  78.  79.  80.
(PID.TID 0000.0001)  Levels:      81.  82.  83.  84.  85.  86.  87.  88.  89.  90.  91.  92.  93.  94.  95.  96.  97.  98.  99. 100.
(PID.TID 0000.0001)  Levels:     101. 102. 103. 104. 105. 106. 107. 108. 109. 110. 111. 112. 113. 114. 115. 116. 117. 118. 119. 120.
(PID.TID 0000.0001) DIAGNOSTICS_SET_POINTERS: done
(PID.TID 0000.0001) ------------------------------------------------------------
(PID.TID 0000.0001) DIAGSTATS_SET_REGIONS: define no region
(PID.TID 0000.0001) ------------------------------------------------------------
(PID.TID 0000.0001) SETDIAG: Allocate  1 Levels for Stats-Diag #    23 ETAN
(PID.TID 0000.0001) SETDIAG: Allocate120 Levels for Stats-Diag #    30 UVEL
(PID.TID 0000.0001) SETDIAG: Allocate120 Levels for Stats-Diag #    31 VVEL
(PID.TID 0000.0001) SETDIAG: Allocate120 Levels for Stats-Diag #    32 WVEL
(PID.TID 0000.0001) SETDIAG: Allocate120 Levels for Stats-Diag #    26 THETA
(PID.TID 0000.0001)   space allocated for all stats-diags:     481 levels
(PID.TID 0000.0001) DIAGSTATS_SET_POINTERS: done
(PID.TID 0000.0001) ------------------------------------------------------------
(PID.TID 0000.0001) DIAGSTATS_INI_IO: open file: dynStDiag.0000000000.txt , unit=     9
(PID.TID 0000.0001) %MON fCori_max                    =   1.4300862936153E-04
(PID.TID 0000.0001) %MON fCori_min                    =  -1.4300862936153E-04
(PID.TID 0000.0001) %MON fCori_mean                   =  -5.4210108624275E-21
(PID.TID 0000.0001) %MON fCori_sd                     =   9.6340490564563E-05
(PID.TID 0000.0001) %MON fCoriG_max                   =   1.4277188648533E-04
(PID.TID 0000.0001) %MON fCoriG_min                   =  -1.4323448157692E-04
(PID.TID 0000.0001) %MON fCoriG_mean                  =  -8.9521550985573E-07
(PID.TID 0000.0001) %MON fCoriG_sd                    =   9.6337355282818E-05
(PID.TID 0000.0001) %MON fCoriCos_max                 =   1.4543856626703E-04
(PID.TID 0000.0001) %MON fCoriCos_min                 =   2.6505082782834E-05
(PID.TID 0000.0001) %MON fCoriCos_mean                =   1.0258544298852E-04
(PID.TID 0000.0001) %MON fCoriCos_sd                  =   3.6724981277280E-05
(PID.TID 0000.0001) INI_CG2D: CG2D normalisation factor =  3.3333333333333334E-08
(PID.TID 0000.0001) 
(PID.TID 0000.0001) INI_CG3D: CG3D normalisation factor =  2.0386565637156620E-07
(PID.TID 0000.0001) 
(PID.TID 0000.0001) // =======================================================
(PID.TID 0000.0001) // Model configuration
(PID.TID 0000.0001) // =======================================================
(PID.TID 0000.0001) //
(PID.TID 0000.0001) // "Physical" paramters ( PARM01 in namelist )
(PID.TID 0000.0001) //
(PID.TID 0000.0001) buoyancyRelation = /* Type of relation to get Buoyancy */
(PID.TID 0000.0001)               'OCEANIC'
(PID.TID 0000.0001)     ;
(PID.TID 0000.0001) fluidIsAir  =  /* fluid major constituent is Air */
(PID.TID 0000.0001)                   F
(PID.TID 0000.0001)     ;
(PID.TID 0000.0001) fluidIsWater=  /* fluid major constituent is Water */
(PID.TID 0000.0001)                   T
(PID.TID 0000.0001)     ;
(PID.TID 0000.0001) usingPCoords =  /* use p (or p*) vertical coordinate */
(PID.TID 0000.0001)                   F
(PID.TID 0000.0001)     ;
(PID.TID 0000.0001) usingZCoords =  /* use z (or z*) vertical coordinate */
(PID.TID 0000.0001)                   T
(PID.TID 0000.0001)     ;
(PID.TID 0000.0001) tRef =   /* Reference temperature profile ( oC or K ) */
(PID.TID 0000.0001)   120 @  1.000000000000000E+00              /* K =  1:120 */
(PID.TID 0000.0001)     ;
(PID.TID 0000.0001) sRef =   /* Reference salinity profile ( psu ) */
(PID.TID 0000.0001)   120 @  0.000000000000000E+00              /* K =  1:120 */
(PID.TID 0000.0001)     ;
(PID.TID 0000.0001) viscAh =   /* Lateral eddy viscosity ( m^2/s ) */
(PID.TID 0000.0001)                 1.000000000000000E+06
(PID.TID 0000.0001)     ;
(PID.TID 0000.0001) viscAhMax =   /* Maximum lateral eddy viscosity ( m^2/s ) */
(PID.TID 0000.0001)                 1.000000000000000E+21
(PID.TID 0000.0001)     ;
(PID.TID 0000.0001) viscAhGrid =   /* Grid dependent lateral eddy viscosity ( non-dim. ) */
(PID.TID 0000.0001)                 0.000000000000000E+00
(PID.TID 0000.0001)     ;
(PID.TID 0000.0001) useFullLeith =   /* Use Full Form of Leith Viscosity on/off flag*/
(PID.TID 0000.0001)                   F
(PID.TID 0000.0001)     ;
(PID.TID 0000.0001) useStrainTensionVisc =   /* Use StrainTension Form of Viscous Operator on/off flag*/
(PID.TID 0000.0001)                   F
(PID.TID 0000.0001)     ;
(PID.TID 0000.0001) useAreaViscLength =   /* Use area for visc length instead of geom. mean*/
(PID.TID 0000.0001)                   F
(PID.TID 0000.0001)     ;
(PID.TID 0000.0001) viscC2leith = /* Leith harmonic visc. factor (on grad(vort),non-dim.) */
(PID.TID 0000.0001)                 0.000000000000000E+00
(PID.TID 0000.0001)     ;
(PID.TID 0000.0001) viscC2leithD = /* Leith harmonic viscosity factor (on grad(div),non-dim.) */
(PID.TID 0000.0001)                 0.000000000000000E+00
(PID.TID 0000.0001)     ;
(PID.TID 0000.0001) viscC2smag =   /* Smagorinsky harmonic viscosity factor (non-dim.) */
(PID.TID 0000.0001)                 0.000000000000000E+00
(PID.TID 0000.0001)     ;
(PID.TID 0000.0001) viscA4 =   /* Lateral biharmonic viscosity ( m^4/s ) */
(PID.TID 0000.0001)                 0.000000000000000E+00
(PID.TID 0000.0001)     ;
(PID.TID 0000.0001) viscA4Max =   /* Maximum biharmonic viscosity ( m^2/s ) */
(PID.TID 0000.0001)                 1.000000000000000E+21
(PID.TID 0000.0001)     ;
(PID.TID 0000.0001) viscA4Grid =   /* Grid dependent biharmonic viscosity ( non-dim. ) */
(PID.TID 0000.0001)                 0.000000000000000E+00
(PID.TID 0000.0001)     ;
(PID.TID 0000.0001) viscC4leith = /* Leith biharm viscosity factor (on grad(vort), non-dim.) */
(PID.TID 0000.0001)                 0.000000000000000E+00
(PID.TID 0000.0001)     ;
(PID.TID 0000.0001) viscC4leithD = /* Leith biharm viscosity factor (on grad(div), non-dim.) */
(PID.TID 0000.0001)                 0.000000000000000E+00
(PID.TID 0000.0001)     ;
(PID.TID 0000.0001) viscC4Smag = /* Smagorinsky biharm viscosity factor (non-dim) */
(PID.TID 0000.0001)                 0.000000000000000E+00
(PID.TID 0000.0001)     ;
(PID.TID 0000.0001) no_slip_sides =  /* Viscous BCs: No-slip sides */
(PID.TID 0000.0001)                   F
(PID.TID 0000.0001)     ;
(PID.TID 0000.0001) sideDragFactor = /* side-drag scaling factor (non-dim) */
(PID.TID 0000.0001)                 2.000000000000000E+00
(PID.TID 0000.0001)     ;
(PID.TID 0000.0001) viscArNr = /* vertical profile of vertical viscosity ( m^2/s )*/
(PID.TID 0000.0001)   120 @  1.000000000000000E+06              /* K =  1:120 */
(PID.TID 0000.0001)     ;
(PID.TID 0000.0001) no_slip_bottom =  /* Viscous BCs: No-slip bottom */
(PID.TID 0000.0001)                   F
(PID.TID 0000.0001)     ;
(PID.TID 0000.0001) bottomDragLinear = /* linear bottom-drag coefficient ( m/s ) */
(PID.TID 0000.0001)                 0.000000000000000E+00
(PID.TID 0000.0001)     ;
(PID.TID 0000.0001) bottomDragQuadratic = /* quadratic bottom-drag coefficient (-) */
(PID.TID 0000.0001)                 0.000000000000000E+00
(PID.TID 0000.0001)     ;
(PID.TID 0000.0001) diffKhT =   /* Laplacian diffusion of heat laterally ( m^2/s ) */
(PID.TID 0000.0001)                 1.000000000000000E+05
(PID.TID 0000.0001)     ;
(PID.TID 0000.0001) diffK4T =   /* Biharmonic diffusion of heat laterally ( m^4/s ) */
(PID.TID 0000.0001)                 0.000000000000000E+00
(PID.TID 0000.0001)     ;
(PID.TID 0000.0001) diffKhS =   /* Laplacian diffusion of salt laterally ( m^2/s ) */
(PID.TID 0000.0001)                 0.000000000000000E+00
(PID.TID 0000.0001)     ;
(PID.TID 0000.0001) diffK4S =   /* Biharmonic diffusion of salt laterally ( m^4/s ) */
(PID.TID 0000.0001)                 0.000000000000000E+00
(PID.TID 0000.0001)     ;
(PID.TID 0000.0001) diffKrNrT = /* vertical profile of vertical diffusion of Temp ( m^2/s )*/
(PID.TID 0000.0001)   120 @  1.000000000000000E+05              /* K =  1:120 */
(PID.TID 0000.0001)     ;
(PID.TID 0000.0001) diffKrNrS = /* vertical profile of vertical diffusion of Salt ( m^2/s )*/
(PID.TID 0000.0001)   120 @  0.000000000000000E+00              /* K =  1:120 */
(PID.TID 0000.0001)     ;
(PID.TID 0000.0001) diffKrBL79surf = /* Surface diffusion for Bryan and Lewis 79 ( m^2/s ) */
(PID.TID 0000.0001)                 0.000000000000000E+00
(PID.TID 0000.0001)     ;
(PID.TID 0000.0001) diffKrBL79deep = /* Deep diffusion for Bryan and Lewis 1979 ( m^2/s ) */
(PID.TID 0000.0001)                 0.000000000000000E+00
(PID.TID 0000.0001)     ;
(PID.TID 0000.0001) diffKrBL79scl = /* Depth scale for Bryan and Lewis 1979 ( m ) */
(PID.TID 0000.0001)                 2.000000000000000E+02
(PID.TID 0000.0001)     ;
(PID.TID 0000.0001) diffKrBL79Ho = /* Turning depth for Bryan and Lewis 1979 ( m ) */
(PID.TID 0000.0001)                -2.000000000000000E+03
(PID.TID 0000.0001)     ;
(PID.TID 0000.0001) ivdc_kappa = /* Implicit Vertical Diffusivity for Convection ( m^2/s ) */
(PID.TID 0000.0001)                 0.000000000000000E+00
(PID.TID 0000.0001)     ;
(PID.TID 0000.0001) hMixCriteria=  /* Criteria for mixed-layer diagnostic */
(PID.TID 0000.0001)                -8.000000000000000E-01
(PID.TID 0000.0001)     ;
(PID.TID 0000.0001) dRhoSmall=  /* Parameter for mixed-layer diagnostic */
(PID.TID 0000.0001)                 1.000000000000000E-06
(PID.TID 0000.0001)     ;
(PID.TID 0000.0001) hMixSmooth=  /* Smoothing parameter for mixed-layer diagnostic */
(PID.TID 0000.0001)                 0.000000000000000E+00
(PID.TID 0000.0001)     ;
(PID.TID 0000.0001) eosType =  /* Type of Equation of State */
(PID.TID 0000.0001)               'LINEAR'
(PID.TID 0000.0001)     ;
(PID.TID 0000.0001) tAlpha =   /* Linear EOS thermal expansion coefficient ( 1/oC ) */
(PID.TID 0000.0001)                 2.000000000000000E-04
(PID.TID 0000.0001)     ;
(PID.TID 0000.0001) sBeta =   /* Linear EOS haline contraction coefficient ( 1/psu ) */
(PID.TID 0000.0001)                 7.400000000000000E-04
(PID.TID 0000.0001)     ;
(PID.TID 0000.0001) rhonil =   /* Reference density ( kg/m^3 ) */
(PID.TID 0000.0001)                 9.998000000000000E+02
(PID.TID 0000.0001)     ;
(PID.TID 0000.0001) rhoConst =   /* Reference density ( kg/m^3 ) */
(PID.TID 0000.0001)                 1.000000000000000E+03
(PID.TID 0000.0001)     ;
(PID.TID 0000.0001) rhoFacC = /* normalized Reference density @ cell-Center (-) */
(PID.TID 0000.0001)                 1.004000000000000E+00,      /* K =  1 */
(PID.TID 0000.0001)                 1.012000000000000E+00,      /* K =  2 */
(PID.TID 0000.0001)                 1.020000000000000E+00,      /* K =  3 */
(PID.TID 0000.0001)                 1.028000000000000E+00,      /* K =  4 */
(PID.TID 0000.0001)                 1.036000000000000E+00,      /* K =  5 */
(PID.TID 0000.0001)                 1.044000000000000E+00,      /* K =  6 */
(PID.TID 0000.0001)                 1.052000000000000E+00,      /* K =  7 */
(PID.TID 0000.0001)                 1.060000000000000E+00,      /* K =  8 */
(PID.TID 0000.0001)                 1.068000000000000E+00,      /* K =  9 */
(PID.TID 0000.0001)                 1.076000000000000E+00,      /* K = 10 */
(PID.TID 0000.0001)                 1.084000000000000E+00,      /* K = 11 */
(PID.TID 0000.0001)                 1.092000000000000E+00,      /* K = 12 */
(PID.TID 0000.0001)                 1.100000000000000E+00,      /* K = 13 */
(PID.TID 0000.0001)                 1.108000000000000E+00,      /* K = 14 */
(PID.TID 0000.0001)                 1.116000000000000E+00,      /* K = 15 */
(PID.TID 0000.0001)                 1.124000000000000E+00,      /* K = 16 */
(PID.TID 0000.0001)                 1.132000000000000E+00,      /* K = 17 */
(PID.TID 0000.0001)                 1.140000000000000E+00,      /* K = 18 */
(PID.TID 0000.0001)                 1.148000000000000E+00,      /* K = 19 */
(PID.TID 0000.0001)                 1.156000000000000E+00,      /* K = 20 */
(PID.TID 0000.0001)                 1.164000000000000E+00,      /* K = 21 */
(PID.TID 0000.0001)                 1.172000000000000E+00,      /* K = 22 */
(PID.TID 0000.0001)                 1.180000000000000E+00,      /* K = 23 */
(PID.TID 0000.0001)                 1.188000000000000E+00,      /* K = 24 */
(PID.TID 0000.0001)                 1.196000000000000E+00,      /* K = 25 */
(PID.TID 0000.0001)                 1.204000000000000E+00,      /* K = 26 */
(PID.TID 0000.0001)                 1.212000000000000E+00,      /* K = 27 */
(PID.TID 0000.0001)                 1.220000000000000E+00,      /* K = 28 */
(PID.TID 0000.0001)                 1.228000000000000E+00,      /* K = 29 */
(PID.TID 0000.0001)                 1.236000000000000E+00,      /* K = 30 */
(PID.TID 0000.0001)                 1.244000000000000E+00,      /* K = 31 */
(PID.TID 0000.0001)                 1.252000000000000E+00,      /* K = 32 */
(PID.TID 0000.0001)                 1.260000000000000E+00,      /* K = 33 */
(PID.TID 0000.0001)                 1.268000000000000E+00,      /* K = 34 */
(PID.TID 0000.0001)                 1.276000000000000E+00,      /* K = 35 */
(PID.TID 0000.0001)                 1.284000000000000E+00,      /* K = 36 */
(PID.TID 0000.0001)                 1.292000000000000E+00,      /* K = 37 */
(PID.TID 0000.0001)                 1.300000000000000E+00,      /* K = 38 */
(PID.TID 0000.0001)                 1.308000000000000E+00,      /* K = 39 */
(PID.TID 0000.0001)                 1.316000000000000E+00,      /* K = 40 */
(PID.TID 0000.0001)                 1.324000000000000E+00,      /* K = 41 */
(PID.TID 0000.0001)                 1.332000000000000E+00,      /* K = 42 */
(PID.TID 0000.0001)                 1.340000000000000E+00,      /* K = 43 */
(PID.TID 0000.0001)                 1.348000000000000E+00,      /* K = 44 */
(PID.TID 0000.0001)                 1.356000000000000E+00,      /* K = 45 */
(PID.TID 0000.0001)                 1.364000000000000E+00,      /* K = 46 */
(PID.TID 0000.0001)                 1.372000000000000E+00,      /* K = 47 */
(PID.TID 0000.0001)                 1.380000000000000E+00,      /* K = 48 */
(PID.TID 0000.0001)                 1.388000000000000E+00,      /* K = 49 */
(PID.TID 0000.0001)                 1.396000000000000E+00,      /* K = 50 */
(PID.TID 0000.0001)                 1.404000000000000E+00,      /* K = 51 */
(PID.TID 0000.0001)                 1.412000000000000E+00,      /* K = 52 */
(PID.TID 0000.0001)                 1.420000000000000E+00,      /* K = 53 */
(PID.TID 0000.0001)                 1.428000000000000E+00,      /* K = 54 */
(PID.TID 0000.0001)                 1.436000000000000E+00,      /* K = 55 */
(PID.TID 0000.0001)                 1.444000000000000E+00,      /* K = 56 */
(PID.TID 0000.0001)                 1.452000000000000E+00,      /* K = 57 */
(PID.TID 0000.0001)                 1.460000000000000E+00,      /* K = 58 */
(PID.TID 0000.0001)                 1.468000000000000E+00,      /* K = 59 */
(PID.TID 0000.0001)                 1.476000000000000E+00,      /* K = 60 */
(PID.TID 0000.0001)                 1.484000000000000E+00,      /* K = 61 */
(PID.TID 0000.0001)                 1.492000000000000E+00,      /* K = 62 */
(PID.TID 0000.0001)                 1.500000000000000E+00,      /* K = 63 */
(PID.TID 0000.0001)                 1.508000000000000E+00,      /* K = 64 */
(PID.TID 0000.0001)                 1.516000000000000E+00,      /* K = 65 */
(PID.TID 0000.0001)                 1.524000000000000E+00,      /* K = 66 */
(PID.TID 0000.0001)                 1.532000000000000E+00,      /* K = 67 */
(PID.TID 0000.0001)                 1.540000000000000E+00,      /* K = 68 */
(PID.TID 0000.0001)                 1.548000000000000E+00,      /* K = 69 */
(PID.TID 0000.0001)                 1.556000000000000E+00,      /* K = 70 */
(PID.TID 0000.0001)                 1.564000000000000E+00,      /* K = 71 */
(PID.TID 0000.0001)                 1.572000000000000E+00,      /* K = 72 */
(PID.TID 0000.0001)                 1.580000000000000E+00,      /* K = 73 */
(PID.TID 0000.0001)                 1.588000000000000E+00,      /* K = 74 */
(PID.TID 0000.0001)                 1.596000000000000E+00,      /* K = 75 */
(PID.TID 0000.0001)                 1.604000000000000E+00,      /* K = 76 */
(PID.TID 0000.0001)                 1.612000000000000E+00,      /* K = 77 */
(PID.TID 0000.0001)                 1.620000000000000E+00,      /* K = 78 */
(PID.TID 0000.0001)                 1.628000000000000E+00,      /* K = 79 */
(PID.TID 0000.0001)                 1.636000000000000E+00,      /* K = 80 */
(PID.TID 0000.0001)                 1.644000000000000E+00,      /* K = 81 */
(PID.TID 0000.0001)                 1.652000000000000E+00,      /* K = 82 */
(PID.TID 0000.0001)                 1.660000000000000E+00,      /* K = 83 */
(PID.TID 0000.0001)                 1.668000000000000E+00,      /* K = 84 */
(PID.TID 0000.0001)                 1.676000000000000E+00,      /* K = 85 */
(PID.TID 0000.0001)                 1.684000000000000E+00,      /* K = 86 */
(PID.TID 0000.0001)                 1.692000000000000E+00,      /* K = 87 */
(PID.TID 0000.0001)                 1.700000000000000E+00,      /* K = 88 */
(PID.TID 0000.0001)                 1.708000000000000E+00,      /* K = 89 */
(PID.TID 0000.0001)                 1.716000000000000E+00,      /* K = 90 */
(PID.TID 0000.0001)                 1.724000000000000E+00,      /* K = 91 */
(PID.TID 0000.0001)                 1.732000000000000E+00,      /* K = 92 */
(PID.TID 0000.0001)                 1.740000000000000E+00,      /* K = 93 */
(PID.TID 0000.0001)                 1.748000000000000E+00,      /* K = 94 */
(PID.TID 0000.0001)                 1.756000000000000E+00,      /* K = 95 */
(PID.TID 0000.0001)                 1.764000000000000E+00,      /* K = 96 */
(PID.TID 0000.0001)                 1.772000000000000E+00,      /* K = 97 */
(PID.TID 0000.0001)                 1.780000000000000E+00,      /* K = 98 */
(PID.TID 0000.0001)                 1.788000000000000E+00,      /* K = 99 */
(PID.TID 0000.0001)                 1.796000000000000E+00,      /* K =100 */
(PID.TID 0000.0001)                 1.804000000000000E+00,      /* K =101 */
(PID.TID 0000.0001)                 1.812000000000000E+00,      /* K =102 */
(PID.TID 0000.0001)                 1.820000000000000E+00,      /* K =103 */
(PID.TID 0000.0001)                 1.828000000000000E+00,      /* K =104 */
(PID.TID 0000.0001)                 1.836000000000000E+00,      /* K =105 */
(PID.TID 0000.0001)                 1.844000000000000E+00,      /* K =106 */
(PID.TID 0000.0001)                 1.852000000000000E+00,      /* K =107 */
(PID.TID 0000.0001)                 1.860000000000000E+00,      /* K =108 */
(PID.TID 0000.0001)                 1.868000000000000E+00,      /* K =109 */
(PID.TID 0000.0001)                 1.876000000000000E+00,      /* K =110 */
(PID.TID 0000.0001)                 1.884000000000000E+00,      /* K =111 */
(PID.TID 0000.0001)                 1.892000000000000E+00,      /* K =112 */
(PID.TID 0000.0001)                 1.900000000000000E+00,      /* K =113 */
(PID.TID 0000.0001)                 1.908000000000000E+00,      /* K =114 */
(PID.TID 0000.0001)                 1.916000000000000E+00,      /* K =115 */
(PID.TID 0000.0001)                 1.924000000000000E+00,      /* K =116 */
(PID.TID 0000.0001)                 1.932000000000000E+00,      /* K =117 */
(PID.TID 0000.0001)                 1.940000000000000E+00,      /* K =118 */
(PID.TID 0000.0001)                 1.948000000000000E+00,      /* K =119 */
(PID.TID 0000.0001)                 1.956000000000000E+00       /* K =120 */
(PID.TID 0000.0001)     ;
(PID.TID 0000.0001) rhoFacF = /* normalized Reference density @ W-Interface (-) */
(PID.TID 0000.0001)                 1.000000000000000E+00,      /* K =  1 */
(PID.TID 0000.0001)                 1.008000000000000E+00,      /* K =  2 */
(PID.TID 0000.0001)                 1.016000000000000E+00,      /* K =  3 */
(PID.TID 0000.0001)                 1.024000000000000E+00,      /* K =  4 */
(PID.TID 0000.0001)                 1.032000000000000E+00,      /* K =  5 */
(PID.TID 0000.0001)                 1.040000000000000E+00,      /* K =  6 */
(PID.TID 0000.0001)                 1.048000000000000E+00,      /* K =  7 */
(PID.TID 0000.0001)                 1.056000000000000E+00,      /* K =  8 */
(PID.TID 0000.0001)                 1.064000000000000E+00,      /* K =  9 */
(PID.TID 0000.0001)                 1.072000000000000E+00,      /* K = 10 */
(PID.TID 0000.0001)                 1.080000000000000E+00,      /* K = 11 */
(PID.TID 0000.0001)                 1.088000000000000E+00,      /* K = 12 */
(PID.TID 0000.0001)                 1.096000000000000E+00,      /* K = 13 */
(PID.TID 0000.0001)                 1.104000000000000E+00,      /* K = 14 */
(PID.TID 0000.0001)                 1.112000000000000E+00,      /* K = 15 */
(PID.TID 0000.0001)                 1.120000000000000E+00,      /* K = 16 */
(PID.TID 0000.0001)                 1.128000000000000E+00,      /* K = 17 */
(PID.TID 0000.0001)                 1.136000000000000E+00,      /* K = 18 */
(PID.TID 0000.0001)                 1.144000000000000E+00,      /* K = 19 */
(PID.TID 0000.0001)                 1.152000000000000E+00,      /* K = 20 */
(PID.TID 0000.0001)                 1.160000000000000E+00,      /* K = 21 */
(PID.TID 0000.0001)                 1.168000000000000E+00,      /* K = 22 */
(PID.TID 0000.0001)                 1.176000000000000E+00,      /* K = 23 */
(PID.TID 0000.0001)                 1.184000000000000E+00,      /* K = 24 */
(PID.TID 0000.0001)                 1.192000000000000E+00,      /* K = 25 */
(PID.TID 0000.0001)                 1.200000000000000E+00,      /* K = 26 */
(PID.TID 0000.0001)                 1.208000000000000E+00,      /* K = 27 */
(PID.TID 0000.0001)                 1.216000000000000E+00,      /* K = 28 */
(PID.TID 0000.0001)                 1.224000000000000E+00,      /* K = 29 */
(PID.TID 0000.0001)                 1.232000000000000E+00,      /* K = 30 */
(PID.TID 0000.0001)                 1.240000000000000E+00,      /* K = 31 */
(PID.TID 0000.0001)                 1.248000000000000E+00,      /* K = 32 */
(PID.TID 0000.0001)                 1.256000000000000E+00,      /* K = 33 */
(PID.TID 0000.0001)                 1.264000000000000E+00,      /* K = 34 */
(PID.TID 0000.0001)                 1.272000000000000E+00,      /* K = 35 */
(PID.TID 0000.0001)                 1.280000000000000E+00,      /* K = 36 */
(PID.TID 0000.0001)                 1.288000000000000E+00,      /* K = 37 */
(PID.TID 0000.0001)                 1.296000000000000E+00,      /* K = 38 */
(PID.TID 0000.0001)                 1.304000000000000E+00,      /* K = 39 */
(PID.TID 0000.0001)                 1.312000000000000E+00,      /* K = 40 */
(PID.TID 0000.0001)                 1.320000000000000E+00,      /* K = 41 */
(PID.TID 0000.0001)                 1.328000000000000E+00,      /* K = 42 */
(PID.TID 0000.0001)                 1.336000000000000E+00,      /* K = 43 */
(PID.TID 0000.0001)                 1.344000000000000E+00,      /* K = 44 */
(PID.TID 0000.0001)                 1.352000000000000E+00,      /* K = 45 */
(PID.TID 0000.0001)                 1.360000000000000E+00,      /* K = 46 */
(PID.TID 0000.0001)                 1.368000000000000E+00,      /* K = 47 */
(PID.TID 0000.0001)                 1.376000000000000E+00,      /* K = 48 */
(PID.TID 0000.0001)                 1.384000000000000E+00,      /* K = 49 */
(PID.TID 0000.0001)                 1.392000000000000E+00,      /* K = 50 */
(PID.TID 0000.0001)                 1.400000000000000E+00,      /* K = 51 */
(PID.TID 0000.0001)                 1.408000000000000E+00,      /* K = 52 */
(PID.TID 0000.0001)                 1.416000000000000E+00,      /* K = 53 */
(PID.TID 0000.0001)                 1.424000000000000E+00,      /* K = 54 */
(PID.TID 0000.0001)                 1.432000000000000E+00,      /* K = 55 */
(PID.TID 0000.0001)                 1.440000000000000E+00,      /* K = 56 */
(PID.TID 0000.0001)                 1.448000000000000E+00,      /* K = 57 */
(PID.TID 0000.0001)                 1.456000000000000E+00,      /* K = 58 */
(PID.TID 0000.0001)                 1.464000000000000E+00,      /* K = 59 */
(PID.TID 0000.0001)                 1.472000000000000E+00,      /* K = 60 */
(PID.TID 0000.0001)                 1.480000000000000E+00,      /* K = 61 */
(PID.TID 0000.0001)                 1.488000000000000E+00,      /* K = 62 */
(PID.TID 0000.0001)                 1.496000000000000E+00,      /* K = 63 */
(PID.TID 0000.0001)                 1.504000000000000E+00,      /* K = 64 */
(PID.TID 0000.0001)                 1.512000000000000E+00,      /* K = 65 */
(PID.TID 0000.0001)                 1.520000000000000E+00,      /* K = 66 */
(PID.TID 0000.0001)                 1.528000000000000E+00,      /* K = 67 */
(PID.TID 0000.0001)                 1.536000000000000E+00,      /* K = 68 */
(PID.TID 0000.0001)                 1.544000000000000E+00,      /* K = 69 */
(PID.TID 0000.0001)                 1.552000000000000E+00,      /* K = 70 */
(PID.TID 0000.0001)                 1.560000000000000E+00,      /* K = 71 */
(PID.TID 0000.0001)                 1.568000000000000E+00,      /* K = 72 */
(PID.TID 0000.0001)                 1.576000000000000E+00,      /* K = 73 */
(PID.TID 0000.0001)                 1.584000000000000E+00,      /* K = 74 */
(PID.TID 0000.0001)                 1.592000000000000E+00,      /* K = 75 */
(PID.TID 0000.0001)                 1.600000000000000E+00,      /* K = 76 */
(PID.TID 0000.0001)                 1.608000000000000E+00,      /* K = 77 */
(PID.TID 0000.0001)                 1.616000000000000E+00,      /* K = 78 */
(PID.TID 0000.0001)                 1.624000000000000E+00,      /* K = 79 */
(PID.TID 0000.0001)                 1.632000000000000E+00,      /* K = 80 */
(PID.TID 0000.0001)                 1.640000000000000E+00,      /* K = 81 */
(PID.TID 0000.0001)                 1.648000000000000E+00,      /* K = 82 */
(PID.TID 0000.0001)                 1.656000000000000E+00,      /* K = 83 */
(PID.TID 0000.0001)                 1.664000000000000E+00,      /* K = 84 */
(PID.TID 0000.0001)                 1.672000000000000E+00,      /* K = 85 */
(PID.TID 0000.0001)                 1.680000000000000E+00,      /* K = 86 */
(PID.TID 0000.0001)                 1.688000000000000E+00,      /* K = 87 */
(PID.TID 0000.0001)                 1.696000000000000E+00,      /* K = 88 */
(PID.TID 0000.0001)                 1.704000000000000E+00,      /* K = 89 */
(PID.TID 0000.0001)                 1.712000000000000E+00,      /* K = 90 */
(PID.TID 0000.0001)                 1.720000000000000E+00,      /* K = 91 */
(PID.TID 0000.0001)                 1.728000000000000E+00,      /* K = 92 */
(PID.TID 0000.0001)                 1.736000000000000E+00,      /* K = 93 */
(PID.TID 0000.0001)                 1.744000000000000E+00,      /* K = 94 */
(PID.TID 0000.0001)                 1.752000000000000E+00,      /* K = 95 */
(PID.TID 0000.0001)                 1.760000000000000E+00,      /* K = 96 */
(PID.TID 0000.0001)                 1.768000000000000E+00,      /* K = 97 */
(PID.TID 0000.0001)                 1.776000000000000E+00,      /* K = 98 */
(PID.TID 0000.0001)                 1.784000000000000E+00,      /* K = 99 */
(PID.TID 0000.0001)                 1.792000000000000E+00,      /* K =100 */
(PID.TID 0000.0001)                 1.800000000000000E+00,      /* K =101 */
(PID.TID 0000.0001)                 1.808000000000000E+00,      /* K =102 */
(PID.TID 0000.0001)                 1.816000000000000E+00,      /* K =103 */
(PID.TID 0000.0001)                 1.824000000000000E+00,      /* K =104 */
(PID.TID 0000.0001)                 1.832000000000000E+00,      /* K =105 */
(PID.TID 0000.0001)                 1.840000000000000E+00,      /* K =106 */
(PID.TID 0000.0001)                 1.848000000000000E+00,      /* K =107 */
(PID.TID 0000.0001)                 1.856000000000000E+00,      /* K =108 */
(PID.TID 0000.0001)                 1.864000000000000E+00,      /* K =109 */
(PID.TID 0000.0001)                 1.872000000000000E+00,      /* K =110 */
(PID.TID 0000.0001)                 1.880000000000000E+00,      /* K =111 */
(PID.TID 0000.0001)                 1.888000000000000E+00,      /* K =112 */
(PID.TID 0000.0001)                 1.896000000000000E+00,      /* K =113 */
(PID.TID 0000.0001)                 1.904000000000000E+00,      /* K =114 */
(PID.TID 0000.0001)                 1.912000000000000E+00,      /* K =115 */
(PID.TID 0000.0001)                 1.920000000000000E+00,      /* K =116 */
(PID.TID 0000.0001)                 1.928000000000000E+00,      /* K =117 */
(PID.TID 0000.0001)                 1.936000000000000E+00,      /* K =118 */
(PID.TID 0000.0001)                 1.944000000000000E+00,      /* K =119 */
(PID.TID 0000.0001)                 1.952000000000000E+00,      /* K =120 */
(PID.TID 0000.0001)                 1.960000000000000E+00       /* K =121 */
(PID.TID 0000.0001)     ;
(PID.TID 0000.0001) rhoConstFresh =   /* Reference density ( kg/m^3 ) */
(PID.TID 0000.0001)                 1.000000000000000E+03
(PID.TID 0000.0001)     ;
(PID.TID 0000.0001) gravity =   /* Gravitational acceleration ( m/s^2 ) */
(PID.TID 0000.0001)                 9.810000000000000E+00
(PID.TID 0000.0001)     ;
(PID.TID 0000.0001) gBaro =   /* Barotropic gravity ( m/s^2 ) */
(PID.TID 0000.0001)                 9.810000000000000E+00
(PID.TID 0000.0001)     ;
(PID.TID 0000.0001) rotationPeriod =   /* Rotation Period ( s ) */
(PID.TID 0000.0001)                 8.640000000000000E+04
(PID.TID 0000.0001)     ;
(PID.TID 0000.0001) omega =   /* Angular velocity ( rad/s ) */
(PID.TID 0000.0001)                 7.272205216643040E-05
(PID.TID 0000.0001)     ;
(PID.TID 0000.0001) f0 =   /* Reference coriolis parameter ( 1/s ) */
(PID.TID 0000.0001)                 1.000000000000000E-04
(PID.TID 0000.0001)     ;
(PID.TID 0000.0001) beta =   /* Beta ( 1/(m.s) ) */
(PID.TID 0000.0001)                 9.999999999999999E-12
(PID.TID 0000.0001)     ;
(PID.TID 0000.0001) freeSurfFac =   /* Implicit free surface factor */
(PID.TID 0000.0001)                 1.000000000000000E+00
(PID.TID 0000.0001)     ;
(PID.TID 0000.0001) implicitFreeSurface =   /* Implicit free surface on/off flag */
(PID.TID 0000.0001)                   T
(PID.TID 0000.0001)     ;
(PID.TID 0000.0001) rigidLid =   /* Rigid lid on/off flag */
(PID.TID 0000.0001)                   F
(PID.TID 0000.0001)     ;
(PID.TID 0000.0001) implicSurfPress =   /* Surface Pressure implicit factor (0-1)*/
(PID.TID 0000.0001)                 1.000000000000000E+00
(PID.TID 0000.0001)     ;
(PID.TID 0000.0001) implicDiv2Dflow =   /* Barot. Flow Div. implicit factor (0-1)*/
(PID.TID 0000.0001)                 1.000000000000000E+00
(PID.TID 0000.0001)     ;
(PID.TID 0000.0001) exactConserv =   /* Exact Volume Conservation on/off flag*/
(PID.TID 0000.0001)                   F
(PID.TID 0000.0001)     ;
(PID.TID 0000.0001) linFSConserveTr =   /* Tracer correction for Lin Free Surface on/off flag*/
(PID.TID 0000.0001)                   F
(PID.TID 0000.0001)     ;
(PID.TID 0000.0001) uniformLin_PhiSurf =   /* use uniform Bo_surf on/off flag*/
(PID.TID 0000.0001)                   T
(PID.TID 0000.0001)     ;
(PID.TID 0000.0001) nonlinFreeSurf =   /* Non-linear Free Surf. options (-1,0,1,2,3)*/
(PID.TID 0000.0001)                       0
(PID.TID 0000.0001)     ;
(PID.TID 0000.0001)      -1,0= Off ; 1,2,3= On, 2=+rescale gU,gV, 3=+update cg2d solv.
(PID.TID 0000.0001) hFacInf =   /* lower threshold for hFac (nonlinFreeSurf only)*/
(PID.TID 0000.0001)                 2.000000000000000E-01
(PID.TID 0000.0001)     ;
(PID.TID 0000.0001) hFacSup =   /* upper threshold for hFac (nonlinFreeSurf only)*/
(PID.TID 0000.0001)                 2.000000000000000E+00
(PID.TID 0000.0001)     ;
(PID.TID 0000.0001) select_rStar = /* r* Vertical coord. options (=0 r coord.; > 0 uses r*) */
(PID.TID 0000.0001)                       0
(PID.TID 0000.0001)     ;
(PID.TID 0000.0001) selectAddFluid = /* option for mass source/sink of fluid (=0: off) */
(PID.TID 0000.0001)                       0
(PID.TID 0000.0001)     ;
(PID.TID 0000.0001) useRealFreshWaterFlux = /* Real Fresh Water Flux on/off flag*/
(PID.TID 0000.0001)                   F
(PID.TID 0000.0001)     ;
(PID.TID 0000.0001) temp_EvPrRn = /* Temp. of Evap/Prec/R (UNSET=use local T)(oC)*/
(PID.TID 0000.0001)                 1.234567000000000E+05
(PID.TID 0000.0001)     ;
(PID.TID 0000.0001) salt_EvPrRn = /* Salin. of Evap/Prec/R (UNSET=use local S)(ppt)*/
(PID.TID 0000.0001)                 0.000000000000000E+00
(PID.TID 0000.0001)     ;
(PID.TID 0000.0001) convertFW2Salt = /* convert F.W. Flux to Salt Flux (-1=use local S)(ppt)*/
(PID.TID 0000.0001)                 3.500000000000000E+01
(PID.TID 0000.0001)     ;
(PID.TID 0000.0001) use3Dsolver = /* use 3-D pressure solver on/off flag */
(PID.TID 0000.0001)                   T
(PID.TID 0000.0001)     ;
(PID.TID 0000.0001) nonHydrostatic =  /* Non-Hydrostatic on/off flag */
(PID.TID 0000.0001)                   T
(PID.TID 0000.0001)     ;
(PID.TID 0000.0001) nh_Am2 = /* Non-Hydrostatic terms scaling factor */
(PID.TID 0000.0001)                 1.000000000000000E+00
(PID.TID 0000.0001)     ;
(PID.TID 0000.0001) quasiHydrostatic = /* Quasi-Hydrostatic on/off flag */
(PID.TID 0000.0001)                   F
(PID.TID 0000.0001)     ;
(PID.TID 0000.0001) momStepping =  /* Momentum equation on/off flag */
(PID.TID 0000.0001)                   T
(PID.TID 0000.0001)     ;
(PID.TID 0000.0001) vectorInvariantMomentum= /* Vector-Invariant Momentum on/off */
(PID.TID 0000.0001)                   F
(PID.TID 0000.0001)     ;
(PID.TID 0000.0001) momAdvection =  /* Momentum advection on/off flag */
(PID.TID 0000.0001)                   T
(PID.TID 0000.0001)     ;
(PID.TID 0000.0001) momViscosity =  /* Momentum viscosity on/off flag */
(PID.TID 0000.0001)                   T
(PID.TID 0000.0001)     ;
(PID.TID 0000.0001) momImplVertAdv =/* Momentum implicit vert. advection on/off*/
(PID.TID 0000.0001)                   F
(PID.TID 0000.0001)     ;
(PID.TID 0000.0001) implicitViscosity = /* Implicit viscosity on/off flag */
(PID.TID 0000.0001)                   T
(PID.TID 0000.0001)     ;
(PID.TID 0000.0001) metricTerms =  /* metric-Terms on/off flag */
(PID.TID 0000.0001)                   T
(PID.TID 0000.0001)     ;
(PID.TID 0000.0001) useNHMTerms = /* Non-Hydrostatic Metric-Terms on/off */
(PID.TID 0000.0001)                   T
(PID.TID 0000.0001)     ;
(PID.TID 0000.0001) useConstantF =  /* use Constant f0 Coriolis flag */
(PID.TID 0000.0001)                   F
(PID.TID 0000.0001)     ;
(PID.TID 0000.0001) useBetaPlaneF = /* use Beta-Plane Coriolis flag */
(PID.TID 0000.0001)                   F
(PID.TID 0000.0001)     ;
(PID.TID 0000.0001) useSphereF  =   /* use Spherical Coriolis flag */
(PID.TID 0000.0001)                   T
(PID.TID 0000.0001)     ;
(PID.TID 0000.0001) use3dCoriolis = /* 3-D Coriolis on/off flag */
(PID.TID 0000.0001)                   T
(PID.TID 0000.0001)     ;
(PID.TID 0000.0001) useCoriolis =  /* Coriolis on/off flag */
(PID.TID 0000.0001)                   T
(PID.TID 0000.0001)     ;
(PID.TID 0000.0001) useCDscheme =  /* CD scheme on/off flag */
(PID.TID 0000.0001)                   F
(PID.TID 0000.0001)     ;
(PID.TID 0000.0001) useJamartWetPoints= /* Coriolis WetPoints method flag */
(PID.TID 0000.0001)                   F
(PID.TID 0000.0001)     ;
(PID.TID 0000.0001) useJamartMomAdv= /* V.I. Non-linear terms Jamart flag */
(PID.TID 0000.0001)                   F
(PID.TID 0000.0001)     ;
(PID.TID 0000.0001) useAbsVorticity= /* Work with f+zeta in Coriolis */
(PID.TID 0000.0001)                   F
(PID.TID 0000.0001)     ;
(PID.TID 0000.0001) selectVortScheme= /* Scheme selector for Vorticity-Term */
(PID.TID 0000.0001)               123456789
(PID.TID 0000.0001)    = 0 : enstrophy (Shallow-Water Eq.) conserving scheme by Sadourny, JAS 75
(PID.TID 0000.0001)    = 1 : same as 0 with modified hFac
(PID.TID 0000.0001)    = 2 : energy conserving scheme (used by Sadourny in JAS 75 paper)
(PID.TID 0000.0001)    = 3 : energy (general) and enstrophy (2D, nonDiv.) conserving scheme
(PID.TID 0000.0001)          from Sadourny (Burridge & Haseler, ECMWF Rep.4, 1977)
(PID.TID 0000.0001)     ;
(PID.TID 0000.0001) upwindVorticity= /* Upwind bias vorticity flag */
(PID.TID 0000.0001)                   F
(PID.TID 0000.0001)     ;
(PID.TID 0000.0001) highOrderVorticity= /* High order interp. of vort. flag */
(PID.TID 0000.0001)                   F
(PID.TID 0000.0001)     ;
(PID.TID 0000.0001) upwindShear= /* Upwind vertical Shear advection flag */
(PID.TID 0000.0001)                   F
(PID.TID 0000.0001)     ;
(PID.TID 0000.0001) selectKEscheme= /* Kinetic Energy scheme selector */
(PID.TID 0000.0001)                       0
(PID.TID 0000.0001)     ;
(PID.TID 0000.0001) momForcing =  /* Momentum forcing on/off flag */
(PID.TID 0000.0001)                   T
(PID.TID 0000.0001)     ;
(PID.TID 0000.0001) momPressureForcing =  /* Momentum pressure term on/off flag */
(PID.TID 0000.0001)                   T
(PID.TID 0000.0001)     ;
(PID.TID 0000.0001) implicitIntGravWave= /* Implicit Internal Gravity Wave flag */
(PID.TID 0000.0001)                   F
(PID.TID 0000.0001)     ;
(PID.TID 0000.0001) staggerTimeStep =   /* Stagger time stepping on/off flag */
(PID.TID 0000.0001)                   T
(PID.TID 0000.0001)     ;
(PID.TID 0000.0001) multiDimAdvection =   /* enable/disable Multi-Dim Advection */
(PID.TID 0000.0001)                   T
(PID.TID 0000.0001)     ;
(PID.TID 0000.0001) useMultiDimAdvec =   /* Multi-Dim Advection is/is-not used */
(PID.TID 0000.0001)                   T
(PID.TID 0000.0001)     ;
(PID.TID 0000.0001) implicitDiffusion =/* Implicit Diffusion on/off flag */
(PID.TID 0000.0001)                   T
(PID.TID 0000.0001)     ;
(PID.TID 0000.0001) tempStepping =  /* Temperature equation on/off flag */
(PID.TID 0000.0001)                   T
(PID.TID 0000.0001)     ;
(PID.TID 0000.0001) tempAdvection=  /* Temperature advection on/off flag */
(PID.TID 0000.0001)                   T
(PID.TID 0000.0001)     ;
(PID.TID 0000.0001) tempImplVertAdv =/* Temp. implicit vert. advection on/off */
(PID.TID 0000.0001)                   F
(PID.TID 0000.0001)     ;
(PID.TID 0000.0001) tempForcing  =  /* Temperature forcing on/off flag */
(PID.TID 0000.0001)                   T
(PID.TID 0000.0001)     ;
(PID.TID 0000.0001) tempIsActiveTr = /* Temp. is a dynamically Active Tracer */
(PID.TID 0000.0001)                   T
(PID.TID 0000.0001)     ;
(PID.TID 0000.0001) saltStepping =  /* Salinity equation on/off flag */
(PID.TID 0000.0001)                   F
(PID.TID 0000.0001)     ;
(PID.TID 0000.0001) saltAdvection=  /* Salinity advection on/off flag */
(PID.TID 0000.0001)                   F
(PID.TID 0000.0001)     ;
(PID.TID 0000.0001) saltImplVertAdv =/* Sali. implicit vert. advection on/off */
(PID.TID 0000.0001)                   F
(PID.TID 0000.0001)     ;
(PID.TID 0000.0001) saltForcing  =  /* Salinity forcing on/off flag */
(PID.TID 0000.0001)                   F
(PID.TID 0000.0001)     ;
(PID.TID 0000.0001) saltIsActiveTr = /* Salt  is a dynamically Active Tracer */
(PID.TID 0000.0001)                   F
(PID.TID 0000.0001)     ;
(PID.TID 0000.0001)  readBinaryPrec = /* Precision used for reading binary files */
(PID.TID 0000.0001)                      64
(PID.TID 0000.0001)     ;
(PID.TID 0000.0001) writeBinaryPrec = /* Precision used for writing binary files */
(PID.TID 0000.0001)                      64
(PID.TID 0000.0001)     ;
(PID.TID 0000.0001)  globalFiles = /* write "global" (=not per tile) files */
(PID.TID 0000.0001)                   F
(PID.TID 0000.0001)     ;
(PID.TID 0000.0001)  useSingleCpuIO = /* only master MPI process does I/O */
(PID.TID 0000.0001)                   F
(PID.TID 0000.0001)     ;
(PID.TID 0000.0001)  debugMode  =  /* Debug Mode on/off flag */
(PID.TID 0000.0001)                   F
(PID.TID 0000.0001)     ;
(PID.TID 0000.0001)    debLevA  =  /* 1rst level of debugging */
(PID.TID 0000.0001)                       1
(PID.TID 0000.0001)     ;
(PID.TID 0000.0001)    debLevB  =  /* 2nd  level of debugging */
(PID.TID 0000.0001)                       2
(PID.TID 0000.0001)     ;
(PID.TID 0000.0001)  debugLevel =  /* select debugging level */
(PID.TID 0000.0001)                       1
(PID.TID 0000.0001)     ;
(PID.TID 0000.0001) //
(PID.TID 0000.0001) // Elliptic solver(s) paramters ( PARM02 in namelist )
(PID.TID 0000.0001) //
(PID.TID 0000.0001) cg2dMaxIters =   /* Upper limit on 2d con. grad iterations  */
(PID.TID 0000.0001)                    1000
(PID.TID 0000.0001)     ;
(PID.TID 0000.0001) cg2dChkResFreq =   /* 2d con. grad convergence test frequency */
(PID.TID 0000.0001)                       1
(PID.TID 0000.0001)     ;
(PID.TID 0000.0001) cg2dTargetResidual =   /* 2d con. grad target residual  */
(PID.TID 0000.0001)                 1.000000000000000E-13
(PID.TID 0000.0001)     ;
(PID.TID 0000.0001) cg2dTargetResWunit =   /* CG2d target residual [W units] */
(PID.TID 0000.0001)                -1.000000000000000E+00
(PID.TID 0000.0001)     ;
(PID.TID 0000.0001) cg2dPreCondFreq =   /* Freq. for updating cg2d preconditioner */
(PID.TID 0000.0001)                       1
(PID.TID 0000.0001)     ;
(PID.TID 0000.0001) useSRCGSolver =  /* use single reduction CG solver(s) */
(PID.TID 0000.0001)                   F
(PID.TID 0000.0001)     ;
(PID.TID 0000.0001) //
(PID.TID 0000.0001) // Time stepping paramters ( PARM03 in namelist )
(PID.TID 0000.0001) //
(PID.TID 0000.0001) deltaTmom =   /* Momentum equation timestep ( s ) */
(PID.TID 0000.0001)                 3.000000000000000E+02
(PID.TID 0000.0001)     ;
(PID.TID 0000.0001) deltaTfreesurf = /* FreeSurface equation timestep ( s ) */
(PID.TID 0000.0001)                 3.000000000000000E+02
(PID.TID 0000.0001)     ;
(PID.TID 0000.0001) dTtracerLev =  /* Tracer equation timestep ( s ) */
(PID.TID 0000.0001)   120 @  3.000000000000000E+02              /* K =  1:120 */
(PID.TID 0000.0001)     ;
(PID.TID 0000.0001) deltaTClock  =   /* Model clock timestep ( s ) */
(PID.TID 0000.0001)                 3.000000000000000E+02
(PID.TID 0000.0001)     ;
(PID.TID 0000.0001) cAdjFreq =   /* Convective adjustment interval ( s ) */
(PID.TID 0000.0001)                 0.000000000000000E+00
(PID.TID 0000.0001)     ;
(PID.TID 0000.0001) momForcingOutAB = /* =1: take Momentum Forcing out of Adams-Bash. stepping */
(PID.TID 0000.0001)                       0
(PID.TID 0000.0001)     ;
(PID.TID 0000.0001) tracForcingOutAB = /* =1: take T,S,pTr Forcing out of Adams-Bash. stepping */
(PID.TID 0000.0001)                       0
(PID.TID 0000.0001)     ;
(PID.TID 0000.0001) momDissip_In_AB = /* put Dissipation Tendency in Adams-Bash. stepping */
(PID.TID 0000.0001)                   T
(PID.TID 0000.0001)     ;
(PID.TID 0000.0001) doAB_onGtGs = /* apply AB on Tendencies (rather than on T,S)*/
(PID.TID 0000.0001)                   T
(PID.TID 0000.0001)     ;
(PID.TID 0000.0001) abEps =   /* Adams-Bashforth-2 stabilizing weight */
(PID.TID 0000.0001)                 1.000000000000000E-01
(PID.TID 0000.0001)     ;
(PID.TID 0000.0001) pickupStrictlyMatch= /* stop if pickup do not strictly match */
(PID.TID 0000.0001)                   T
(PID.TID 0000.0001)     ;
(PID.TID 0000.0001) nIter0 =   /* Run starting timestep number  */
(PID.TID 0000.0001)                       0
(PID.TID 0000.0001)     ;
(PID.TID 0000.0001) nTimeSteps =   /* Number of timesteps */
(PID.TID 0000.0001)                      18
(PID.TID 0000.0001)     ;
(PID.TID 0000.0001) baseTime =   /* Model base time ( s ). */
(PID.TID 0000.0001)                 0.000000000000000E+00
(PID.TID 0000.0001)     ;
(PID.TID 0000.0001) startTime =   /* Run start time ( s ). */
(PID.TID 0000.0001)                 0.000000000000000E+00
(PID.TID 0000.0001)     ;
(PID.TID 0000.0001) endTime =   /* Integration ending time ( s ). */
(PID.TID 0000.0001)                 5.400000000000000E+03
(PID.TID 0000.0001)     ;
(PID.TID 0000.0001) pChkPtFreq =   /* Permanent restart/checkpoint file interval ( s ). */
(PID.TID 0000.0001)                 8.640000000000000E+04
(PID.TID 0000.0001)     ;
(PID.TID 0000.0001) chkPtFreq =   /* Rolling restart/checkpoint file interval ( s ). */
(PID.TID 0000.0001)                 0.000000000000000E+00
(PID.TID 0000.0001)     ;
(PID.TID 0000.0001) pickup_write_mdsio =   /* Model IO flag. */
(PID.TID 0000.0001)                   T
(PID.TID 0000.0001)     ;
(PID.TID 0000.0001) pickup_read_mdsio =   /* Model IO flag. */
(PID.TID 0000.0001)                   T
(PID.TID 0000.0001)     ;
(PID.TID 0000.0001) pickup_write_immed =   /* Model IO flag. */
(PID.TID 0000.0001)                   F
(PID.TID 0000.0001)     ;
(PID.TID 0000.0001) writePickupAtEnd =   /* Model IO flag. */
(PID.TID 0000.0001)                   T
(PID.TID 0000.0001)     ;
(PID.TID 0000.0001) dumpFreq =   /* Model state write out interval ( s ). */
(PID.TID 0000.0001)                 7.200000000000000E+03
(PID.TID 0000.0001)     ;
(PID.TID 0000.0001) dumpInitAndLast= /* write out Initial & Last iter. model state */
(PID.TID 0000.0001)                   T
(PID.TID 0000.0001)     ;
(PID.TID 0000.0001) snapshot_mdsio =   /* Model IO flag. */
(PID.TID 0000.0001)                   T
(PID.TID 0000.0001)     ;
(PID.TID 0000.0001) monitorFreq =   /* Monitor output interval ( s ). */
(PID.TID 0000.0001)                 1.000000000000000E+00
(PID.TID 0000.0001)     ;
(PID.TID 0000.0001) monitorSelect = /* select group of variables to monitor */
(PID.TID 0000.0001)                       3
(PID.TID 0000.0001)     ;
(PID.TID 0000.0001) monitor_stdio =   /* Model IO flag. */
(PID.TID 0000.0001)                   T
(PID.TID 0000.0001)     ;
(PID.TID 0000.0001) externForcingPeriod =   /* forcing period (s) */
(PID.TID 0000.0001)                 0.000000000000000E+00
(PID.TID 0000.0001)     ;
(PID.TID 0000.0001) externForcingCycle =   /* period of the cyle (s). */
(PID.TID 0000.0001)                 0.000000000000000E+00
(PID.TID 0000.0001)     ;
(PID.TID 0000.0001) tauThetaClimRelax =   /* relaxation time scale (s) */
(PID.TID 0000.0001)                 0.000000000000000E+00
(PID.TID 0000.0001)     ;
(PID.TID 0000.0001) tauSaltClimRelax =   /* relaxation time scale (s) */
(PID.TID 0000.0001)                 0.000000000000000E+00
(PID.TID 0000.0001)     ;
(PID.TID 0000.0001) latBandClimRelax =   /* max. Lat. where relaxation */
(PID.TID 0000.0001)                 1.800000000000000E+02
(PID.TID 0000.0001)     ;
(PID.TID 0000.0001) //
(PID.TID 0000.0001) // Gridding paramters ( PARM04 in namelist )
(PID.TID 0000.0001) //
(PID.TID 0000.0001) usingCartesianGrid = /* Cartesian coordinates flag ( True/False ) */
(PID.TID 0000.0001)                   F
(PID.TID 0000.0001)     ;
(PID.TID 0000.0001) usingCylindricalGrid = /* Cylindrical coordinates flag ( True/False ) */
(PID.TID 0000.0001)                   F
(PID.TID 0000.0001)     ;
(PID.TID 0000.0001) usingSphericalPolarGrid = /* Spherical coordinates flag ( True/False ) */
(PID.TID 0000.0001)                   T
(PID.TID 0000.0001)     ;
(PID.TID 0000.0001) usingCurvilinearGrid = /* Curvilinear coordinates flag ( True/False ) */
(PID.TID 0000.0001)                   F
(PID.TID 0000.0001)     ;
(PID.TID 0000.0001) Ro_SeaLevel = /* r(1) ( units of r ==  m ) */
(PID.TID 0000.0001)                 0.000000000000000E+00
(PID.TID 0000.0001)     ;
(PID.TID 0000.0001) rkSign =   /* index orientation relative to vertical coordinate */
(PID.TID 0000.0001)                -1.000000000000000E+00
(PID.TID 0000.0001)     ;
(PID.TID 0000.0001) gravitySign = /* gravity orientation relative to vertical coordinate */
(PID.TID 0000.0001)                -1.000000000000000E+00
(PID.TID 0000.0001)     ;
(PID.TID 0000.0001) mass2rUnit = /* convert mass per unit area [kg/m2] to r-units [m] */
(PID.TID 0000.0001)                 1.000000000000000E-03
(PID.TID 0000.0001)     ;
(PID.TID 0000.0001) rUnit2mass = /* convert r-units [m] to mass per unit area [kg/m2] */
(PID.TID 0000.0001)                 1.000000000000000E+03
(PID.TID 0000.0001)     ;
(PID.TID 0000.0001) drC =   /* C spacing ( units of r ) */
(PID.TID 0000.0001)                 1.250000000000000E+04,      /* K =  1 */
(PID.TID 0000.0001)   119 @  2.500000000000000E+04              /* K =  2:120 */
(PID.TID 0000.0001)     ;
(PID.TID 0000.0001) drF =   /* W spacing ( units of r ) */
(PID.TID 0000.0001)   120 @  2.500000000000000E+04              /* K =  1:120 */
(PID.TID 0000.0001)     ;
(PID.TID 0000.0001) delX = /* U spacing ( m - cartesian, degrees - spherical ) */
(PID.TID 0000.0001)                 1.000000000000000E+01       /* I =  1 */
(PID.TID 0000.0001)     ;
(PID.TID 0000.0001) delY = /* V spacing ( m - cartesian, degrees - spherical ) */
(PID.TID 0000.0001)   160 @  1.000000000000000E+00              /* J =  1:160 */
(PID.TID 0000.0001)     ;
(PID.TID 0000.0001) xgOrigin = /* X-axis origin of West  edge (cartesian: m, lat-lon: deg.) */
(PID.TID 0000.0001)                 0.000000000000000E+00
(PID.TID 0000.0001)     ;
(PID.TID 0000.0001) ygOrigin = /* Y-axis origin of South edge (cartesian: m, lat-lon: deg.) */
(PID.TID 0000.0001)                -8.000000000000000E+01
(PID.TID 0000.0001)     ;
(PID.TID 0000.0001) rSphere =  /* Radius ( ignored - cartesian, m - spherical ) */
(PID.TID 0000.0001)                 6.370000000000000E+06
(PID.TID 0000.0001)     ;
(PID.TID 0000.0001) deepAtmosphere = /* Deep/Shallow Atmosphere flag (True/False) */
(PID.TID 0000.0001)                   T
(PID.TID 0000.0001)     ;
(PID.TID 0000.0001) xC =  /* xC(:,1,:,1) : P-point X coord ( deg. or m if cartesian) */
(PID.TID 0000.0001)                 5.000000000000000E+00       /* I =  1 */
(PID.TID 0000.0001)     ;
(PID.TID 0000.0001) yC =  /* yC(1,:,1,:) : P-point Y coord ( deg. or m if cartesian) */
(PID.TID 0000.0001)                -7.950000000000000E+01,      /* J =  1 */
(PID.TID 0000.0001)                -7.850000000000000E+01,      /* J =  2 */
(PID.TID 0000.0001)                -7.750000000000000E+01,      /* J =  3 */
(PID.TID 0000.0001)      . . .
(PID.TID 0000.0001)                -4.250000000000000E+01,      /* J = 38 */
(PID.TID 0000.0001)                -4.150000000000000E+01,      /* J = 39 */
(PID.TID 0000.0001)                -4.050000000000000E+01,      /* J = 40 */
(PID.TID 0000.0001)                -3.950000000000000E+01,      /* J = 41 */
(PID.TID 0000.0001)                -3.850000000000000E+01,      /* J = 42 */
(PID.TID 0000.0001)                -3.750000000000000E+01,      /* J = 43 */
(PID.TID 0000.0001)      . . .
(PID.TID 0000.0001)                -2.500000000000000E+00,      /* J = 78 */
(PID.TID 0000.0001)                -1.500000000000000E+00,      /* J = 79 */
(PID.TID 0000.0001)                -5.000000000000000E-01,      /* J = 80 */
(PID.TID 0000.0001)                 5.000000000000000E-01,      /* J = 81 */
(PID.TID 0000.0001)                 1.500000000000000E+00,      /* J = 82 */
(PID.TID 0000.0001)                 2.500000000000000E+00,      /* J = 83 */
(PID.TID 0000.0001)      . . .
(PID.TID 0000.0001)                 3.750000000000000E+01,      /* J =118 */
(PID.TID 0000.0001)                 3.850000000000000E+01,      /* J =119 */
(PID.TID 0000.0001)                 3.950000000000000E+01,      /* J =120 */
(PID.TID 0000.0001)                 4.050000000000000E+01,      /* J =121 */
(PID.TID 0000.0001)                 4.150000000000000E+01,      /* J =122 */
(PID.TID 0000.0001)                 4.250000000000000E+01,      /* J =123 */
(PID.TID 0000.0001)      . . .
(PID.TID 0000.0001)                 7.750000000000000E+01,      /* J =158 */
(PID.TID 0000.0001)                 7.850000000000000E+01,      /* J =159 */
(PID.TID 0000.0001)                 7.950000000000000E+01       /* J =160 */
(PID.TID 0000.0001)     ;
(PID.TID 0000.0001) rcoord = /* P-point R coordinate (  units of r ) */
(PID.TID 0000.0001)                -1.250000000000000E+04,      /* K =  1 */
(PID.TID 0000.0001)                -3.750000000000000E+04,      /* K =  2 */
(PID.TID 0000.0001)                -6.250000000000000E+04,      /* K =  3 */
(PID.TID 0000.0001)                -8.750000000000000E+04,      /* K =  4 */
(PID.TID 0000.0001)                -1.125000000000000E+05,      /* K =  5 */
(PID.TID 0000.0001)                -1.375000000000000E+05,      /* K =  6 */
(PID.TID 0000.0001)                -1.625000000000000E+05,      /* K =  7 */
(PID.TID 0000.0001)                -1.875000000000000E+05,      /* K =  8 */
(PID.TID 0000.0001)                -2.125000000000000E+05,      /* K =  9 */
(PID.TID 0000.0001)                -2.375000000000000E+05,      /* K = 10 */
(PID.TID 0000.0001)                -2.625000000000000E+05,      /* K = 11 */
(PID.TID 0000.0001)                -2.875000000000000E+05,      /* K = 12 */
(PID.TID 0000.0001)                -3.125000000000000E+05,      /* K = 13 */
(PID.TID 0000.0001)                -3.375000000000000E+05,      /* K = 14 */
(PID.TID 0000.0001)                -3.625000000000000E+05,      /* K = 15 */
(PID.TID 0000.0001)                -3.875000000000000E+05,      /* K = 16 */
(PID.TID 0000.0001)                -4.125000000000000E+05,      /* K = 17 */
(PID.TID 0000.0001)                -4.375000000000000E+05,      /* K = 18 */
(PID.TID 0000.0001)                -4.625000000000000E+05,      /* K = 19 */
(PID.TID 0000.0001)                -4.875000000000000E+05,      /* K = 20 */
(PID.TID 0000.0001)                -5.125000000000000E+05,      /* K = 21 */
(PID.TID 0000.0001)                -5.375000000000000E+05,      /* K = 22 */
(PID.TID 0000.0001)                -5.625000000000000E+05,      /* K = 23 */
(PID.TID 0000.0001)                -5.875000000000000E+05,      /* K = 24 */
(PID.TID 0000.0001)                -6.125000000000000E+05,      /* K = 25 */
(PID.TID 0000.0001)                -6.375000000000000E+05,      /* K = 26 */
(PID.TID 0000.0001)                -6.625000000000000E+05,      /* K = 27 */
(PID.TID 0000.0001)                -6.875000000000000E+05,      /* K = 28 */
(PID.TID 0000.0001)                -7.125000000000000E+05,      /* K = 29 */
(PID.TID 0000.0001)                -7.375000000000000E+05,      /* K = 30 */
(PID.TID 0000.0001)                -7.625000000000000E+05,      /* K = 31 */
(PID.TID 0000.0001)                -7.875000000000000E+05,      /* K = 32 */
(PID.TID 0000.0001)                -8.125000000000000E+05,      /* K = 33 */
(PID.TID 0000.0001)                -8.375000000000000E+05,      /* K = 34 */
(PID.TID 0000.0001)                -8.625000000000000E+05,      /* K = 35 */
(PID.TID 0000.0001)                -8.875000000000000E+05,      /* K = 36 */
(PID.TID 0000.0001)                -9.125000000000000E+05,      /* K = 37 */
(PID.TID 0000.0001)                -9.375000000000000E+05,      /* K = 38 */
(PID.TID 0000.0001)                -9.625000000000000E+05,      /* K = 39 */
(PID.TID 0000.0001)                -9.875000000000000E+05,      /* K = 40 */
(PID.TID 0000.0001)                -1.012500000000000E+06,      /* K = 41 */
(PID.TID 0000.0001)                -1.037500000000000E+06,      /* K = 42 */
(PID.TID 0000.0001)                -1.062500000000000E+06,      /* K = 43 */
(PID.TID 0000.0001)                -1.087500000000000E+06,      /* K = 44 */
(PID.TID 0000.0001)                -1.112500000000000E+06,      /* K = 45 */
(PID.TID 0000.0001)                -1.137500000000000E+06,      /* K = 46 */
(PID.TID 0000.0001)                -1.162500000000000E+06,      /* K = 47 */
(PID.TID 0000.0001)                -1.187500000000000E+06,      /* K = 48 */
(PID.TID 0000.0001)                -1.212500000000000E+06,      /* K = 49 */
(PID.TID 0000.0001)                -1.237500000000000E+06,      /* K = 50 */
(PID.TID 0000.0001)                -1.262500000000000E+06,      /* K = 51 */
(PID.TID 0000.0001)                -1.287500000000000E+06,      /* K = 52 */
(PID.TID 0000.0001)                -1.312500000000000E+06,      /* K = 53 */
(PID.TID 0000.0001)                -1.337500000000000E+06,      /* K = 54 */
(PID.TID 0000.0001)                -1.362500000000000E+06,      /* K = 55 */
(PID.TID 0000.0001)                -1.387500000000000E+06,      /* K = 56 */
(PID.TID 0000.0001)                -1.412500000000000E+06,      /* K = 57 */
(PID.TID 0000.0001)                -1.437500000000000E+06,      /* K = 58 */
(PID.TID 0000.0001)                -1.462500000000000E+06,      /* K = 59 */
(PID.TID 0000.0001)                -1.487500000000000E+06,      /* K = 60 */
(PID.TID 0000.0001)                -1.512500000000000E+06,      /* K = 61 */
(PID.TID 0000.0001)                -1.537500000000000E+06,      /* K = 62 */
(PID.TID 0000.0001)                -1.562500000000000E+06,      /* K = 63 */
(PID.TID 0000.0001)                -1.587500000000000E+06,      /* K = 64 */
(PID.TID 0000.0001)                -1.612500000000000E+06,      /* K = 65 */
(PID.TID 0000.0001)                -1.637500000000000E+06,      /* K = 66 */
(PID.TID 0000.0001)                -1.662500000000000E+06,      /* K = 67 */
(PID.TID 0000.0001)                -1.687500000000000E+06,      /* K = 68 */
(PID.TID 0000.0001)                -1.712500000000000E+06,      /* K = 69 */
(PID.TID 0000.0001)                -1.737500000000000E+06,      /* K = 70 */
(PID.TID 0000.0001)                -1.762500000000000E+06,      /* K = 71 */
(PID.TID 0000.0001)                -1.787500000000000E+06,      /* K = 72 */
(PID.TID 0000.0001)                -1.812500000000000E+06,      /* K = 73 */
(PID.TID 0000.0001)                -1.837500000000000E+06,      /* K = 74 */
(PID.TID 0000.0001)                -1.862500000000000E+06,      /* K = 75 */
(PID.TID 0000.0001)                -1.887500000000000E+06,      /* K = 76 */
(PID.TID 0000.0001)                -1.912500000000000E+06,      /* K = 77 */
(PID.TID 0000.0001)                -1.937500000000000E+06,      /* K = 78 */
(PID.TID 0000.0001)                -1.962500000000000E+06,      /* K = 79 */
(PID.TID 0000.0001)                -1.987500000000000E+06,      /* K = 80 */
(PID.TID 0000.0001)                -2.012500000000000E+06,      /* K = 81 */
(PID.TID 0000.0001)                -2.037500000000000E+06,      /* K = 82 */
(PID.TID 0000.0001)                -2.062500000000000E+06,      /* K = 83 */
(PID.TID 0000.0001)                -2.087500000000000E+06,      /* K = 84 */
(PID.TID 0000.0001)                -2.112500000000000E+06,      /* K = 85 */
(PID.TID 0000.0001)                -2.137500000000000E+06,      /* K = 86 */
(PID.TID 0000.0001)                -2.162500000000000E+06,      /* K = 87 */
(PID.TID 0000.0001)                -2.187500000000000E+06,      /* K = 88 */
(PID.TID 0000.0001)                -2.212500000000000E+06,      /* K = 89 */
(PID.TID 0000.0001)                -2.237500000000000E+06,      /* K = 90 */
(PID.TID 0000.0001)                -2.262500000000000E+06,      /* K = 91 */
(PID.TID 0000.0001)                -2.287500000000000E+06,      /* K = 92 */
(PID.TID 0000.0001)                -2.312500000000000E+06,      /* K = 93 */
(PID.TID 0000.0001)                -2.337500000000000E+06,      /* K = 94 */
(PID.TID 0000.0001)                -2.362500000000000E+06,      /* K = 95 */
(PID.TID 0000.0001)                -2.387500000000000E+06,      /* K = 96 */
(PID.TID 0000.0001)                -2.412500000000000E+06,      /* K = 97 */
(PID.TID 0000.0001)                -2.437500000000000E+06,      /* K = 98 */
(PID.TID 0000.0001)                -2.462500000000000E+06,      /* K = 99 */
(PID.TID 0000.0001)                -2.487500000000000E+06,      /* K =100 */
(PID.TID 0000.0001)                -2.512500000000000E+06,      /* K =101 */
(PID.TID 0000.0001)                -2.537500000000000E+06,      /* K =102 */
(PID.TID 0000.0001)                -2.562500000000000E+06,      /* K =103 */
(PID.TID 0000.0001)                -2.587500000000000E+06,      /* K =104 */
(PID.TID 0000.0001)                -2.612500000000000E+06,      /* K =105 */
(PID.TID 0000.0001)                -2.637500000000000E+06,      /* K =106 */
(PID.TID 0000.0001)                -2.662500000000000E+06,      /* K =107 */
(PID.TID 0000.0001)                -2.687500000000000E+06,      /* K =108 */
(PID.TID 0000.0001)                -2.712500000000000E+06,      /* K =109 */
(PID.TID 0000.0001)                -2.737500000000000E+06,      /* K =110 */
(PID.TID 0000.0001)                -2.762500000000000E+06,      /* K =111 */
(PID.TID 0000.0001)                -2.787500000000000E+06,      /* K =112 */
(PID.TID 0000.0001)                -2.812500000000000E+06,      /* K =113 */
(PID.TID 0000.0001)                -2.837500000000000E+06,      /* K =114 */
(PID.TID 0000.0001)                -2.862500000000000E+06,      /* K =115 */
(PID.TID 0000.0001)                -2.887500000000000E+06,      /* K =116 */
(PID.TID 0000.0001)                -2.912500000000000E+06,      /* K =117 */
(PID.TID 0000.0001)                -2.937500000000000E+06,      /* K =118 */
(PID.TID 0000.0001)                -2.962500000000000E+06,      /* K =119 */
(PID.TID 0000.0001)                -2.987500000000000E+06       /* K =120 */
(PID.TID 0000.0001)     ;
(PID.TID 0000.0001) rF =   /* W-Interf. R coordinate (  units of r ) */
(PID.TID 0000.0001)                 0.000000000000000E+00,      /* K =  1 */
(PID.TID 0000.0001)                -2.500000000000000E+04,      /* K =  2 */
(PID.TID 0000.0001)                -5.000000000000000E+04,      /* K =  3 */
(PID.TID 0000.0001)                -7.500000000000000E+04,      /* K =  4 */
(PID.TID 0000.0001)                -1.000000000000000E+05,      /* K =  5 */
(PID.TID 0000.0001)                -1.250000000000000E+05,      /* K =  6 */
(PID.TID 0000.0001)                -1.500000000000000E+05,      /* K =  7 */
(PID.TID 0000.0001)                -1.750000000000000E+05,      /* K =  8 */
(PID.TID 0000.0001)                -2.000000000000000E+05,      /* K =  9 */
(PID.TID 0000.0001)                -2.250000000000000E+05,      /* K = 10 */
(PID.TID 0000.0001)                -2.500000000000000E+05,      /* K = 11 */
(PID.TID 0000.0001)                -2.750000000000000E+05,      /* K = 12 */
(PID.TID 0000.0001)                -3.000000000000000E+05,      /* K = 13 */
(PID.TID 0000.0001)                -3.250000000000000E+05,      /* K = 14 */
(PID.TID 0000.0001)                -3.500000000000000E+05,      /* K = 15 */
(PID.TID 0000.0001)                -3.750000000000000E+05,      /* K = 16 */
(PID.TID 0000.0001)                -4.000000000000000E+05,      /* K = 17 */
(PID.TID 0000.0001)                -4.250000000000000E+05,      /* K = 18 */
(PID.TID 0000.0001)                -4.500000000000000E+05,      /* K = 19 */
(PID.TID 0000.0001)                -4.750000000000000E+05,      /* K = 20 */
(PID.TID 0000.0001)                -5.000000000000000E+05,      /* K = 21 */
(PID.TID 0000.0001)                -5.250000000000000E+05,      /* K = 22 */
(PID.TID 0000.0001)                -5.500000000000000E+05,      /* K = 23 */
(PID.TID 0000.0001)                -5.750000000000000E+05,      /* K = 24 */
(PID.TID 0000.0001)                -6.000000000000000E+05,      /* K = 25 */
(PID.TID 0000.0001)                -6.250000000000000E+05,      /* K = 26 */
(PID.TID 0000.0001)                -6.500000000000000E+05,      /* K = 27 */
(PID.TID 0000.0001)                -6.750000000000000E+05,      /* K = 28 */
(PID.TID 0000.0001)                -7.000000000000000E+05,      /* K = 29 */
(PID.TID 0000.0001)                -7.250000000000000E+05,      /* K = 30 */
(PID.TID 0000.0001)                -7.500000000000000E+05,      /* K = 31 */
(PID.TID 0000.0001)                -7.750000000000000E+05,      /* K = 32 */
(PID.TID 0000.0001)                -8.000000000000000E+05,      /* K = 33 */
(PID.TID 0000.0001)                -8.250000000000000E+05,      /* K = 34 */
(PID.TID 0000.0001)                -8.500000000000000E+05,      /* K = 35 */
(PID.TID 0000.0001)                -8.750000000000000E+05,      /* K = 36 */
(PID.TID 0000.0001)                -9.000000000000000E+05,      /* K = 37 */
(PID.TID 0000.0001)                -9.250000000000000E+05,      /* K = 38 */
(PID.TID 0000.0001)                -9.500000000000000E+05,      /* K = 39 */
(PID.TID 0000.0001)                -9.750000000000000E+05,      /* K = 40 */
(PID.TID 0000.0001)                -1.000000000000000E+06,      /* K = 41 */
(PID.TID 0000.0001)                -1.025000000000000E+06,      /* K = 42 */
(PID.TID 0000.0001)                -1.050000000000000E+06,      /* K = 43 */
(PID.TID 0000.0001)                -1.075000000000000E+06,      /* K = 44 */
(PID.TID 0000.0001)                -1.100000000000000E+06,      /* K = 45 */
(PID.TID 0000.0001)                -1.125000000000000E+06,      /* K = 46 */
(PID.TID 0000.0001)                -1.150000000000000E+06,      /* K = 47 */
(PID.TID 0000.0001)                -1.175000000000000E+06,      /* K = 48 */
(PID.TID 0000.0001)                -1.200000000000000E+06,      /* K = 49 */
(PID.TID 0000.0001)                -1.225000000000000E+06,      /* K = 50 */
(PID.TID 0000.0001)                -1.250000000000000E+06,      /* K = 51 */
(PID.TID 0000.0001)                -1.275000000000000E+06,      /* K = 52 */
(PID.TID 0000.0001)                -1.300000000000000E+06,      /* K = 53 */
(PID.TID 0000.0001)                -1.325000000000000E+06,      /* K = 54 */
(PID.TID 0000.0001)                -1.350000000000000E+06,      /* K = 55 */
(PID.TID 0000.0001)                -1.375000000000000E+06,      /* K = 56 */
(PID.TID 0000.0001)                -1.400000000000000E+06,      /* K = 57 */
(PID.TID 0000.0001)                -1.425000000000000E+06,      /* K = 58 */
(PID.TID 0000.0001)                -1.450000000000000E+06,      /* K = 59 */
(PID.TID 0000.0001)                -1.475000000000000E+06,      /* K = 60 */
(PID.TID 0000.0001)                -1.500000000000000E+06,      /* K = 61 */
(PID.TID 0000.0001)                -1.525000000000000E+06,      /* K = 62 */
(PID.TID 0000.0001)                -1.550000000000000E+06,      /* K = 63 */
(PID.TID 0000.0001)                -1.575000000000000E+06,      /* K = 64 */
(PID.TID 0000.0001)                -1.600000000000000E+06,      /* K = 65 */
(PID.TID 0000.0001)                -1.625000000000000E+06,      /* K = 66 */
(PID.TID 0000.0001)                -1.650000000000000E+06,      /* K = 67 */
(PID.TID 0000.0001)                -1.675000000000000E+06,      /* K = 68 */
(PID.TID 0000.0001)                -1.700000000000000E+06,      /* K = 69 */
(PID.TID 0000.0001)                -1.725000000000000E+06,      /* K = 70 */
(PID.TID 0000.0001)                -1.750000000000000E+06,      /* K = 71 */
(PID.TID 0000.0001)                -1.775000000000000E+06,      /* K = 72 */
(PID.TID 0000.0001)                -1.800000000000000E+06,      /* K = 73 */
(PID.TID 0000.0001)                -1.825000000000000E+06,      /* K = 74 */
(PID.TID 0000.0001)                -1.850000000000000E+06,      /* K = 75 */
(PID.TID 0000.0001)                -1.875000000000000E+06,      /* K = 76 */
(PID.TID 0000.0001)                -1.900000000000000E+06,      /* K = 77 */
(PID.TID 0000.0001)                -1.925000000000000E+06,      /* K = 78 */
(PID.TID 0000.0001)                -1.950000000000000E+06,      /* K = 79 */
(PID.TID 0000.0001)                -1.975000000000000E+06,      /* K = 80 */
(PID.TID 0000.0001)                -2.000000000000000E+06,      /* K = 81 */
(PID.TID 0000.0001)                -2.025000000000000E+06,      /* K = 82 */
(PID.TID 0000.0001)                -2.050000000000000E+06,      /* K = 83 */
(PID.TID 0000.0001)                -2.075000000000000E+06,      /* K = 84 */
(PID.TID 0000.0001)                -2.100000000000000E+06,      /* K = 85 */
(PID.TID 0000.0001)                -2.125000000000000E+06,      /* K = 86 */
(PID.TID 0000.0001)                -2.150000000000000E+06,      /* K = 87 */
(PID.TID 0000.0001)                -2.175000000000000E+06,      /* K = 88 */
(PID.TID 0000.0001)                -2.200000000000000E+06,      /* K = 89 */
(PID.TID 0000.0001)                -2.225000000000000E+06,      /* K = 90 */
(PID.TID 0000.0001)                -2.250000000000000E+06,      /* K = 91 */
(PID.TID 0000.0001)                -2.275000000000000E+06,      /* K = 92 */
(PID.TID 0000.0001)                -2.300000000000000E+06,      /* K = 93 */
(PID.TID 0000.0001)                -2.325000000000000E+06,      /* K = 94 */
(PID.TID 0000.0001)                -2.350000000000000E+06,      /* K = 95 */
(PID.TID 0000.0001)                -2.375000000000000E+06,      /* K = 96 */
(PID.TID 0000.0001)                -2.400000000000000E+06,      /* K = 97 */
(PID.TID 0000.0001)                -2.425000000000000E+06,      /* K = 98 */
(PID.TID 0000.0001)                -2.450000000000000E+06,      /* K = 99 */
(PID.TID 0000.0001)                -2.475000000000000E+06,      /* K =100 */
(PID.TID 0000.0001)                -2.500000000000000E+06,      /* K =101 */
(PID.TID 0000.0001)                -2.525000000000000E+06,      /* K =102 */
(PID.TID 0000.0001)                -2.550000000000000E+06,      /* K =103 */
(PID.TID 0000.0001)                -2.575000000000000E+06,      /* K =104 */
(PID.TID 0000.0001)                -2.600000000000000E+06,      /* K =105 */
(PID.TID 0000.0001)                -2.625000000000000E+06,      /* K =106 */
(PID.TID 0000.0001)                -2.650000000000000E+06,      /* K =107 */
(PID.TID 0000.0001)                -2.675000000000000E+06,      /* K =108 */
(PID.TID 0000.0001)                -2.700000000000000E+06,      /* K =109 */
(PID.TID 0000.0001)                -2.725000000000000E+06,      /* K =110 */
(PID.TID 0000.0001)                -2.750000000000000E+06,      /* K =111 */
(PID.TID 0000.0001)                -2.775000000000000E+06,      /* K =112 */
(PID.TID 0000.0001)                -2.800000000000000E+06,      /* K =113 */
(PID.TID 0000.0001)                -2.825000000000000E+06,      /* K =114 */
(PID.TID 0000.0001)                -2.850000000000000E+06,      /* K =115 */
(PID.TID 0000.0001)                -2.875000000000000E+06,      /* K =116 */
(PID.TID 0000.0001)                -2.900000000000000E+06,      /* K =117 */
(PID.TID 0000.0001)                -2.925000000000000E+06,      /* K =118 */
(PID.TID 0000.0001)                -2.950000000000000E+06,      /* K =119 */
(PID.TID 0000.0001)                -2.975000000000000E+06,      /* K =120 */
(PID.TID 0000.0001)                -3.000000000000000E+06       /* K =121 */
(PID.TID 0000.0001)     ;
(PID.TID 0000.0001) deepFacC = /* deep-model grid factor @ cell-Center (-) */
(PID.TID 0000.0001)                 9.980376766091051E-01,      /* K =  1 */
(PID.TID 0000.0001)                 9.941130298273155E-01,      /* K =  2 */
(PID.TID 0000.0001)                 9.901883830455259E-01,      /* K =  3 */
(PID.TID 0000.0001)                 9.862637362637363E-01,      /* K =  4 */
(PID.TID 0000.0001)                 9.823390894819466E-01,      /* K =  5 */
(PID.TID 0000.0001)                 9.784144427001570E-01,      /* K =  6 */
(PID.TID 0000.0001)                 9.744897959183674E-01,      /* K =  7 */
(PID.TID 0000.0001)                 9.705651491365778E-01,      /* K =  8 */
(PID.TID 0000.0001)                 9.666405023547880E-01,      /* K =  9 */
(PID.TID 0000.0001)                 9.627158555729984E-01,      /* K = 10 */
(PID.TID 0000.0001)                 9.587912087912088E-01,      /* K = 11 */
(PID.TID 0000.0001)                 9.548665620094192E-01,      /* K = 12 */
(PID.TID 0000.0001)                 9.509419152276295E-01,      /* K = 13 */
(PID.TID 0000.0001)                 9.470172684458399E-01,      /* K = 14 */
(PID.TID 0000.0001)                 9.430926216640503E-01,      /* K = 15 */
(PID.TID 0000.0001)                 9.391679748822606E-01,      /* K = 16 */
(PID.TID 0000.0001)                 9.352433281004709E-01,      /* K = 17 */
(PID.TID 0000.0001)                 9.313186813186813E-01,      /* K = 18 */
(PID.TID 0000.0001)                 9.273940345368917E-01,      /* K = 19 */
(PID.TID 0000.0001)                 9.234693877551020E-01,      /* K = 20 */
(PID.TID 0000.0001)                 9.195447409733124E-01,      /* K = 21 */
(PID.TID 0000.0001)                 9.156200941915228E-01,      /* K = 22 */
(PID.TID 0000.0001)                 9.116954474097332E-01,      /* K = 23 */
(PID.TID 0000.0001)                 9.077708006279435E-01,      /* K = 24 */
(PID.TID 0000.0001)                 9.038461538461539E-01,      /* K = 25 */
(PID.TID 0000.0001)                 8.999215070643642E-01,      /* K = 26 */
(PID.TID 0000.0001)                 8.959968602825745E-01,      /* K = 27 */
(PID.TID 0000.0001)                 8.920722135007849E-01,      /* K = 28 */
(PID.TID 0000.0001)                 8.881475667189953E-01,      /* K = 29 */
(PID.TID 0000.0001)                 8.842229199372057E-01,      /* K = 30 */
(PID.TID 0000.0001)                 8.802982731554160E-01,      /* K = 31 */
(PID.TID 0000.0001)                 8.763736263736264E-01,      /* K = 32 */
(PID.TID 0000.0001)                 8.724489795918368E-01,      /* K = 33 */
(PID.TID 0000.0001)                 8.685243328100472E-01,      /* K = 34 */
(PID.TID 0000.0001)                 8.645996860282574E-01,      /* K = 35 */
(PID.TID 0000.0001)                 8.606750392464678E-01,      /* K = 36 */
(PID.TID 0000.0001)                 8.567503924646782E-01,      /* K = 37 */
(PID.TID 0000.0001)                 8.528257456828886E-01,      /* K = 38 */
(PID.TID 0000.0001)                 8.489010989010989E-01,      /* K = 39 */
(PID.TID 0000.0001)                 8.449764521193093E-01,      /* K = 40 */
(PID.TID 0000.0001)                 8.410518053375197E-01,      /* K = 41 */
(PID.TID 0000.0001)                 8.371271585557299E-01,      /* K = 42 */
(PID.TID 0000.0001)                 8.332025117739403E-01,      /* K = 43 */
(PID.TID 0000.0001)                 8.292778649921507E-01,      /* K = 44 */
(PID.TID 0000.0001)                 8.253532182103611E-01,      /* K = 45 */
(PID.TID 0000.0001)                 8.214285714285714E-01,      /* K = 46 */
(PID.TID 0000.0001)                 8.175039246467818E-01,      /* K = 47 */
(PID.TID 0000.0001)                 8.135792778649922E-01,      /* K = 48 */
(PID.TID 0000.0001)                 8.096546310832026E-01,      /* K = 49 */
(PID.TID 0000.0001)                 8.057299843014128E-01,      /* K = 50 */
(PID.TID 0000.0001)                 8.018053375196232E-01,      /* K = 51 */
(PID.TID 0000.0001)                 7.978806907378336E-01,      /* K = 52 */
(PID.TID 0000.0001)                 7.939560439560439E-01,      /* K = 53 */
(PID.TID 0000.0001)                 7.900313971742543E-01,      /* K = 54 */
(PID.TID 0000.0001)                 7.861067503924647E-01,      /* K = 55 */
(PID.TID 0000.0001)                 7.821821036106751E-01,      /* K = 56 */
(PID.TID 0000.0001)                 7.782574568288854E-01,      /* K = 57 */
(PID.TID 0000.0001)                 7.743328100470958E-01,      /* K = 58 */
(PID.TID 0000.0001)                 7.704081632653061E-01,      /* K = 59 */
(PID.TID 0000.0001)                 7.664835164835165E-01,      /* K = 60 */
(PID.TID 0000.0001)                 7.625588697017268E-01,      /* K = 61 */
(PID.TID 0000.0001)                 7.586342229199372E-01,      /* K = 62 */
(PID.TID 0000.0001)                 7.547095761381476E-01,      /* K = 63 */
(PID.TID 0000.0001)                 7.507849293563580E-01,      /* K = 64 */
(PID.TID 0000.0001)                 7.468602825745683E-01,      /* K = 65 */
(PID.TID 0000.0001)                 7.429356357927787E-01,      /* K = 66 */
(PID.TID 0000.0001)                 7.390109890109891E-01,      /* K = 67 */
(PID.TID 0000.0001)                 7.350863422291993E-01,      /* K = 68 */
(PID.TID 0000.0001)                 7.311616954474097E-01,      /* K = 69 */
(PID.TID 0000.0001)                 7.272370486656201E-01,      /* K = 70 */
(PID.TID 0000.0001)                 7.233124018838305E-01,      /* K = 71 */
(PID.TID 0000.0001)                 7.193877551020408E-01,      /* K = 72 */
(PID.TID 0000.0001)                 7.154631083202512E-01,      /* K = 73 */
(PID.TID 0000.0001)                 7.115384615384616E-01,      /* K = 74 */
(PID.TID 0000.0001)                 7.076138147566720E-01,      /* K = 75 */
(PID.TID 0000.0001)                 7.036891679748822E-01,      /* K = 76 */
(PID.TID 0000.0001)                 6.997645211930926E-01,      /* K = 77 */
(PID.TID 0000.0001)                 6.958398744113030E-01,      /* K = 78 */
(PID.TID 0000.0001)                 6.919152276295133E-01,      /* K = 79 */
(PID.TID 0000.0001)                 6.879905808477237E-01,      /* K = 80 */
(PID.TID 0000.0001)                 6.840659340659341E-01,      /* K = 81 */
(PID.TID 0000.0001)                 6.801412872841445E-01,      /* K = 82 */
(PID.TID 0000.0001)                 6.762166405023547E-01,      /* K = 83 */
(PID.TID 0000.0001)                 6.722919937205651E-01,      /* K = 84 */
(PID.TID 0000.0001)                 6.683673469387755E-01,      /* K = 85 */
(PID.TID 0000.0001)                 6.644427001569859E-01,      /* K = 86 */
(PID.TID 0000.0001)                 6.605180533751962E-01,      /* K = 87 */
(PID.TID 0000.0001)                 6.565934065934066E-01,      /* K = 88 */
(PID.TID 0000.0001)                 6.526687598116170E-01,      /* K = 89 */
(PID.TID 0000.0001)                 6.487441130298274E-01,      /* K = 90 */
(PID.TID 0000.0001)                 6.448194662480377E-01,      /* K = 91 */
(PID.TID 0000.0001)                 6.408948194662480E-01,      /* K = 92 */
(PID.TID 0000.0001)                 6.369701726844584E-01,      /* K = 93 */
(PID.TID 0000.0001)                 6.330455259026687E-01,      /* K = 94 */
(PID.TID 0000.0001)                 6.291208791208791E-01,      /* K = 95 */
(PID.TID 0000.0001)                 6.251962323390895E-01,      /* K = 96 */
(PID.TID 0000.0001)                 6.212715855572999E-01,      /* K = 97 */
(PID.TID 0000.0001)                 6.173469387755102E-01,      /* K = 98 */
(PID.TID 0000.0001)                 6.134222919937206E-01,      /* K = 99 */
(PID.TID 0000.0001)                 6.094976452119309E-01,      /* K =100 */
(PID.TID 0000.0001)                 6.055729984301413E-01,      /* K =101 */
(PID.TID 0000.0001)                 6.016483516483516E-01,      /* K =102 */
(PID.TID 0000.0001)                 5.977237048665620E-01,      /* K =103 */
(PID.TID 0000.0001)                 5.937990580847724E-01,      /* K =104 */
(PID.TID 0000.0001)                 5.898744113029828E-01,      /* K =105 */
(PID.TID 0000.0001)                 5.859497645211931E-01,      /* K =106 */
(PID.TID 0000.0001)                 5.820251177394035E-01,      /* K =107 */
(PID.TID 0000.0001)                 5.781004709576139E-01,      /* K =108 */
(PID.TID 0000.0001)                 5.741758241758241E-01,      /* K =109 */
(PID.TID 0000.0001)                 5.702511773940345E-01,      /* K =110 */
(PID.TID 0000.0001)                 5.663265306122449E-01,      /* K =111 */
(PID.TID 0000.0001)                 5.624018838304553E-01,      /* K =112 */
(PID.TID 0000.0001)                 5.584772370486656E-01,      /* K =113 */
(PID.TID 0000.0001)                 5.545525902668760E-01,      /* K =114 */
(PID.TID 0000.0001)                 5.506279434850864E-01,      /* K =115 */
(PID.TID 0000.0001)                 5.467032967032968E-01,      /* K =116 */
(PID.TID 0000.0001)                 5.427786499215070E-01,      /* K =117 */
(PID.TID 0000.0001)                 5.388540031397174E-01,      /* K =118 */
(PID.TID 0000.0001)                 5.349293563579278E-01,      /* K =119 */
(PID.TID 0000.0001)                 5.310047095761381E-01       /* K =120 */
(PID.TID 0000.0001)     ;
(PID.TID 0000.0001) deepFacF = /* deep-model grid factor @ W-Interface (-) */
(PID.TID 0000.0001)                 1.000000000000000E+00,      /* K =  1 */
(PID.TID 0000.0001)                 9.960753532182104E-01,      /* K =  2 */
(PID.TID 0000.0001)                 9.921507064364208E-01,      /* K =  3 */
(PID.TID 0000.0001)                 9.882260596546311E-01,      /* K =  4 */
(PID.TID 0000.0001)                 9.843014128728415E-01,      /* K =  5 */
(PID.TID 0000.0001)                 9.803767660910518E-01,      /* K =  6 */
(PID.TID 0000.0001)                 9.764521193092621E-01,      /* K =  7 */
(PID.TID 0000.0001)                 9.725274725274725E-01,      /* K =  8 */
(PID.TID 0000.0001)                 9.686028257456829E-01,      /* K =  9 */
(PID.TID 0000.0001)                 9.646781789638933E-01,      /* K = 10 */
(PID.TID 0000.0001)                 9.607535321821036E-01,      /* K = 11 */
(PID.TID 0000.0001)                 9.568288854003140E-01,      /* K = 12 */
(PID.TID 0000.0001)                 9.529042386185244E-01,      /* K = 13 */
(PID.TID 0000.0001)                 9.489795918367347E-01,      /* K = 14 */
(PID.TID 0000.0001)                 9.450549450549450E-01,      /* K = 15 */
(PID.TID 0000.0001)                 9.411302982731554E-01,      /* K = 16 */
(PID.TID 0000.0001)                 9.372056514913658E-01,      /* K = 17 */
(PID.TID 0000.0001)                 9.332810047095762E-01,      /* K = 18 */
(PID.TID 0000.0001)                 9.293563579277865E-01,      /* K = 19 */
(PID.TID 0000.0001)                 9.254317111459969E-01,      /* K = 20 */
(PID.TID 0000.0001)                 9.215070643642073E-01,      /* K = 21 */
(PID.TID 0000.0001)                 9.175824175824175E-01,      /* K = 22 */
(PID.TID 0000.0001)                 9.136577708006279E-01,      /* K = 23 */
(PID.TID 0000.0001)                 9.097331240188383E-01,      /* K = 24 */
(PID.TID 0000.0001)                 9.058084772370487E-01,      /* K = 25 */
(PID.TID 0000.0001)                 9.018838304552590E-01,      /* K = 26 */
(PID.TID 0000.0001)                 8.979591836734694E-01,      /* K = 27 */
(PID.TID 0000.0001)                 8.940345368916798E-01,      /* K = 28 */
(PID.TID 0000.0001)                 8.901098901098902E-01,      /* K = 29 */
(PID.TID 0000.0001)                 8.861852433281004E-01,      /* K = 30 */
(PID.TID 0000.0001)                 8.822605965463108E-01,      /* K = 31 */
(PID.TID 0000.0001)                 8.783359497645212E-01,      /* K = 32 */
(PID.TID 0000.0001)                 8.744113029827316E-01,      /* K = 33 */
(PID.TID 0000.0001)                 8.704866562009419E-01,      /* K = 34 */
(PID.TID 0000.0001)                 8.665620094191523E-01,      /* K = 35 */
(PID.TID 0000.0001)                 8.626373626373627E-01,      /* K = 36 */
(PID.TID 0000.0001)                 8.587127158555730E-01,      /* K = 37 */
(PID.TID 0000.0001)                 8.547880690737834E-01,      /* K = 38 */
(PID.TID 0000.0001)                 8.508634222919937E-01,      /* K = 39 */
(PID.TID 0000.0001)                 8.469387755102041E-01,      /* K = 40 */
(PID.TID 0000.0001)                 8.430141287284144E-01,      /* K = 41 */
(PID.TID 0000.0001)                 8.390894819466248E-01,      /* K = 42 */
(PID.TID 0000.0001)                 8.351648351648352E-01,      /* K = 43 */
(PID.TID 0000.0001)                 8.312401883830456E-01,      /* K = 44 */
(PID.TID 0000.0001)                 8.273155416012559E-01,      /* K = 45 */
(PID.TID 0000.0001)                 8.233908948194663E-01,      /* K = 46 */
(PID.TID 0000.0001)                 8.194662480376766E-01,      /* K = 47 */
(PID.TID 0000.0001)                 8.155416012558869E-01,      /* K = 48 */
(PID.TID 0000.0001)                 8.116169544740973E-01,      /* K = 49 */
(PID.TID 0000.0001)                 8.076923076923077E-01,      /* K = 50 */
(PID.TID 0000.0001)                 8.037676609105181E-01,      /* K = 51 */
(PID.TID 0000.0001)                 7.998430141287284E-01,      /* K = 52 */
(PID.TID 0000.0001)                 7.959183673469388E-01,      /* K = 53 */
(PID.TID 0000.0001)                 7.919937205651492E-01,      /* K = 54 */
(PID.TID 0000.0001)                 7.880690737833596E-01,      /* K = 55 */
(PID.TID 0000.0001)                 7.841444270015698E-01,      /* K = 56 */
(PID.TID 0000.0001)                 7.802197802197802E-01,      /* K = 57 */
(PID.TID 0000.0001)                 7.762951334379906E-01,      /* K = 58 */
(PID.TID 0000.0001)                 7.723704866562010E-01,      /* K = 59 */
(PID.TID 0000.0001)                 7.684458398744113E-01,      /* K = 60 */
(PID.TID 0000.0001)                 7.645211930926217E-01,      /* K = 61 */
(PID.TID 0000.0001)                 7.605965463108321E-01,      /* K = 62 */
(PID.TID 0000.0001)                 7.566718995290423E-01,      /* K = 63 */
(PID.TID 0000.0001)                 7.527472527472527E-01,      /* K = 64 */
(PID.TID 0000.0001)                 7.488226059654631E-01,      /* K = 65 */
(PID.TID 0000.0001)                 7.448979591836735E-01,      /* K = 66 */
(PID.TID 0000.0001)                 7.409733124018838E-01,      /* K = 67 */
(PID.TID 0000.0001)                 7.370486656200942E-01,      /* K = 68 */
(PID.TID 0000.0001)                 7.331240188383046E-01,      /* K = 69 */
(PID.TID 0000.0001)                 7.291993720565150E-01,      /* K = 70 */
(PID.TID 0000.0001)                 7.252747252747253E-01,      /* K = 71 */
(PID.TID 0000.0001)                 7.213500784929356E-01,      /* K = 72 */
(PID.TID 0000.0001)                 7.174254317111460E-01,      /* K = 73 */
(PID.TID 0000.0001)                 7.135007849293563E-01,      /* K = 74 */
(PID.TID 0000.0001)                 7.095761381475667E-01,      /* K = 75 */
(PID.TID 0000.0001)                 7.056514913657771E-01,      /* K = 76 */
(PID.TID 0000.0001)                 7.017268445839875E-01,      /* K = 77 */
(PID.TID 0000.0001)                 6.978021978021978E-01,      /* K = 78 */
(PID.TID 0000.0001)                 6.938775510204082E-01,      /* K = 79 */
(PID.TID 0000.0001)                 6.899529042386185E-01,      /* K = 80 */
(PID.TID 0000.0001)                 6.860282574568289E-01,      /* K = 81 */
(PID.TID 0000.0001)                 6.821036106750392E-01,      /* K = 82 */
(PID.TID 0000.0001)                 6.781789638932496E-01,      /* K = 83 */
(PID.TID 0000.0001)                 6.742543171114600E-01,      /* K = 84 */
(PID.TID 0000.0001)                 6.703296703296704E-01,      /* K = 85 */
(PID.TID 0000.0001)                 6.664050235478807E-01,      /* K = 86 */
(PID.TID 0000.0001)                 6.624803767660911E-01,      /* K = 87 */
(PID.TID 0000.0001)                 6.585557299843015E-01,      /* K = 88 */
(PID.TID 0000.0001)                 6.546310832025117E-01,      /* K = 89 */
(PID.TID 0000.0001)                 6.507064364207221E-01,      /* K = 90 */
(PID.TID 0000.0001)                 6.467817896389325E-01,      /* K = 91 */
(PID.TID 0000.0001)                 6.428571428571429E-01,      /* K = 92 */
(PID.TID 0000.0001)                 6.389324960753532E-01,      /* K = 93 */
(PID.TID 0000.0001)                 6.350078492935636E-01,      /* K = 94 */
(PID.TID 0000.0001)                 6.310832025117740E-01,      /* K = 95 */
(PID.TID 0000.0001)                 6.271585557299844E-01,      /* K = 96 */
(PID.TID 0000.0001)                 6.232339089481946E-01,      /* K = 97 */
(PID.TID 0000.0001)                 6.193092621664050E-01,      /* K = 98 */
(PID.TID 0000.0001)                 6.153846153846154E-01,      /* K = 99 */
(PID.TID 0000.0001)                 6.114599686028257E-01,      /* K =100 */
(PID.TID 0000.0001)                 6.075353218210361E-01,      /* K =101 */
(PID.TID 0000.0001)                 6.036106750392465E-01,      /* K =102 */
(PID.TID 0000.0001)                 5.996860282574569E-01,      /* K =103 */
(PID.TID 0000.0001)                 5.957613814756672E-01,      /* K =104 */
(PID.TID 0000.0001)                 5.918367346938775E-01,      /* K =105 */
(PID.TID 0000.0001)                 5.879120879120879E-01,      /* K =106 */
(PID.TID 0000.0001)                 5.839874411302983E-01,      /* K =107 */
(PID.TID 0000.0001)                 5.800627943485086E-01,      /* K =108 */
(PID.TID 0000.0001)                 5.761381475667190E-01,      /* K =109 */
(PID.TID 0000.0001)                 5.722135007849294E-01,      /* K =110 */
(PID.TID 0000.0001)                 5.682888540031398E-01,      /* K =111 */
(PID.TID 0000.0001)                 5.643642072213501E-01,      /* K =112 */
(PID.TID 0000.0001)                 5.604395604395604E-01,      /* K =113 */
(PID.TID 0000.0001)                 5.565149136577708E-01,      /* K =114 */
(PID.TID 0000.0001)                 5.525902668759811E-01,      /* K =115 */
(PID.TID 0000.0001)                 5.486656200941915E-01,      /* K =116 */
(PID.TID 0000.0001)                 5.447409733124019E-01,      /* K =117 */
(PID.TID 0000.0001)                 5.408163265306123E-01,      /* K =118 */
(PID.TID 0000.0001)                 5.368916797488226E-01,      /* K =119 */
(PID.TID 0000.0001)                 5.329670329670330E-01,      /* K =120 */
(PID.TID 0000.0001)                 5.290423861852434E-01       /* K =121 */
(PID.TID 0000.0001)     ;
(PID.TID 0000.0001) rVel2wUnit = /* convert units: rVel -> wSpeed (=1 if z-coord)*/
(PID.TID 0000.0001)   121 @  1.000000000000000E+00              /* K =  1:121 */
(PID.TID 0000.0001)     ;
(PID.TID 0000.0001) wUnit2rVel = /* convert units: wSpeed -> rVel (=1 if z-coord)*/
(PID.TID 0000.0001)   121 @  1.000000000000000E+00              /* K =  1:121 */
(PID.TID 0000.0001)     ;
(PID.TID 0000.0001) dBdrRef = /* Vertical gradient of reference boyancy [(m/s/r)^2)] */
(PID.TID 0000.0001)   120 @  0.000000000000000E+00              /* K =  1:120 */
(PID.TID 0000.0001)     ;
(PID.TID 0000.0001) rotateGrid = /* use rotated grid ( True/False ) */
(PID.TID 0000.0001)                   F
(PID.TID 0000.0001)     ;
(PID.TID 0000.0001) phiEuler = /* Euler angle, rotation about original z-coordinate [rad] */
(PID.TID 0000.0001)                 0.000000000000000E+00
(PID.TID 0000.0001)     ;
(PID.TID 0000.0001) thetaEuler = /* Euler angle, rotation about new x-coordinate [rad] */
(PID.TID 0000.0001)                 0.000000000000000E+00
(PID.TID 0000.0001)     ;
(PID.TID 0000.0001) psiEuler = /* Euler angle, rotation about new z-coordinate [rad] */
(PID.TID 0000.0001)                 0.000000000000000E+00
(PID.TID 0000.0001)     ;
(PID.TID 0000.0001) dxF =  /* dxF(:,1,:,1) ( units: m ) */
(PID.TID 0000.0001)                 2.026048527919801E+05       /* I =  1 */
(PID.TID 0000.0001)     ;
(PID.TID 0000.0001) dxF =  /* dxF(1,:,1,:) ( units: m ) */
(PID.TID 0000.0001)                 2.026048527919801E+05,      /* J =  1 */
(PID.TID 0000.0001)                 2.216522321591896E+05,      /* J =  2 */
(PID.TID 0000.0001)                 2.406320941092900E+05,      /* J =  3 */
(PID.TID 0000.0001)      . . .
(PID.TID 0000.0001)                 8.196863146626968E+05,      /* J = 38 */
(PID.TID 0000.0001)                 8.326700468987628E+05,      /* J = 39 */
(PID.TID 0000.0001)                 8.454001397722876E+05,      /* J = 40 */
(PID.TID 0000.0001)                 8.578727155736628E+05,      /* J = 41 */
(PID.TID 0000.0001)                 8.700839750354744E+05,      /* J = 42 */
(PID.TID 0000.0001)                 8.820301984897978E+05,      /* J = 43 */
(PID.TID 0000.0001)      . . .
(PID.TID 0000.0001)                 1.110716570323187E+06,      /* J = 78 */
(PID.TID 0000.0001)                 1.111393756086404E+06,      /* J = 79 */
(PID.TID 0000.0001)                 1.111732400545204E+06,      /* J = 80 */
(PID.TID 0000.0001)                 1.111732400545204E+06,      /* J = 81 */
(PID.TID 0000.0001)                 1.111393756086404E+06,      /* J = 82 */
(PID.TID 0000.0001)                 1.110716570323187E+06,      /* J = 83 */
(PID.TID 0000.0001)      . . .
(PID.TID 0000.0001)                 8.820301984897978E+05,      /* J =118 */
(PID.TID 0000.0001)                 8.700839750354744E+05,      /* J =119 */
(PID.TID 0000.0001)                 8.578727155736628E+05,      /* J =120 */
(PID.TID 0000.0001)                 8.454001397722876E+05,      /* J =121 */
(PID.TID 0000.0001)                 8.326700468987628E+05,      /* J =122 */
(PID.TID 0000.0001)                 8.196863146626968E+05,      /* J =123 */
(PID.TID 0000.0001)      . . .
(PID.TID 0000.0001)                 2.406320941092900E+05,      /* J =158 */
(PID.TID 0000.0001)                 2.216522321591896E+05,      /* J =159 */
(PID.TID 0000.0001)                 2.026048527919801E+05       /* J =160 */
(PID.TID 0000.0001)     ;
(PID.TID 0000.0001) dyF =  /* dyF(:,1,:,1) ( units: m ) */
(PID.TID 0000.0001)                 1.111774733520388E+05       /* I =  1 */
(PID.TID 0000.0001)     ;
(PID.TID 0000.0001) dyF =  /* dyF(1,:,1,:) ( units: m ) */
(PID.TID 0000.0001)   160 @  1.111774733520388E+05              /* J =  1:160 */
(PID.TID 0000.0001)     ;
(PID.TID 0000.0001) dxG =  /* dxG(:,1,:,1) ( units: m ) */
(PID.TID 0000.0001)                 1.930576564519526E+05       /* I =  1 */
(PID.TID 0000.0001)     ;
(PID.TID 0000.0001) dxG =  /* dxG(1,:,1,:) ( units: m ) */
(PID.TID 0000.0001)                 1.930576564519526E+05,      /* J =  1 */
(PID.TID 0000.0001)                 2.121366199880512E+05,      /* J =  2 */
(PID.TID 0000.0001)                 2.311509646546878E+05,      /* J =  3 */
(PID.TID 0000.0001)      . . .
(PID.TID 0000.0001)                 8.131005667268025E+05,      /* J = 38 */
(PID.TID 0000.0001)                 8.262096403121852E+05,      /* J = 39 */
(PID.TID 0000.0001)                 8.390670424374563E+05,      /* J = 40 */
(PID.TID 0000.0001)                 8.516688566133757E+05,      /* J = 41 */
(PID.TID 0000.0001)                 8.640112442052695E+05,      /* J = 42 */
(PID.TID 0000.0001)                 8.760904456023134E+05,      /* J = 43 */
(PID.TID 0000.0001)      . . .
(PID.TID 0000.0001)                 1.110251084887355E+06,      /* J = 78 */
(PID.TID 0000.0001)                 1.111097470391875E+06,      /* J = 79 */
(PID.TID 0000.0001)                 1.111605404843471E+06,      /* J = 80 */
(PID.TID 0000.0001)                 1.111774733520388E+06,      /* J = 81 */
(PID.TID 0000.0001)                 1.111605404843471E+06,      /* J = 82 */
(PID.TID 0000.0001)                 1.111097470391875E+06,      /* J = 83 */
(PID.TID 0000.0001)      . . .
(PID.TID 0000.0001)                 8.879027813627481E+05,      /* J =118 */
(PID.TID 0000.0001)                 8.760904456023134E+05,      /* J =119 */
(PID.TID 0000.0001)                 8.640112442052695E+05,      /* J =120 */
(PID.TID 0000.0001)                 8.516688566133757E+05,      /* J =121 */
(PID.TID 0000.0001)                 8.390670424374563E+05,      /* J =122 */
(PID.TID 0000.0001)                 8.262096403121852E+05,      /* J =123 */
(PID.TID 0000.0001)      . . .
(PID.TID 0000.0001)                 2.500948984982807E+05,      /* J =158 */
(PID.TID 0000.0001)                 2.311509646546878E+05,      /* J =159 */
(PID.TID 0000.0001)                 2.121366199880512E+05       /* J =160 */
(PID.TID 0000.0001)     ;
(PID.TID 0000.0001) dyG =  /* dyG(:,1,:,1) ( units: m ) */
(PID.TID 0000.0001)                 1.111774733520388E+05       /* I =  1 */
(PID.TID 0000.0001)     ;
(PID.TID 0000.0001) dyG =  /* dyG(1,:,1,:) ( units: m ) */
(PID.TID 0000.0001)   160 @  1.111774733520388E+05              /* J =  1:160 */
(PID.TID 0000.0001)     ;
(PID.TID 0000.0001) dxC =  /* dxC(:,1,:,1) ( units: m ) */
(PID.TID 0000.0001)                 2.026048527919801E+05       /* I =  1 */
(PID.TID 0000.0001)     ;
(PID.TID 0000.0001) dxC =  /* dxC(1,:,1,:) ( units: m ) */
(PID.TID 0000.0001)                 2.026048527919801E+05,      /* J =  1 */
(PID.TID 0000.0001)                 2.216522321591896E+05,      /* J =  2 */
(PID.TID 0000.0001)                 2.406320941092900E+05,      /* J =  3 */
(PID.TID 0000.0001)      . . .
(PID.TID 0000.0001)                 8.196863146626968E+05,      /* J = 38 */
(PID.TID 0000.0001)                 8.326700468987628E+05,      /* J = 39 */
(PID.TID 0000.0001)                 8.454001397722876E+05,      /* J = 40 */
(PID.TID 0000.0001)                 8.578727155736628E+05,      /* J = 41 */
(PID.TID 0000.0001)                 8.700839750354744E+05,      /* J = 42 */
(PID.TID 0000.0001)                 8.820301984897978E+05,      /* J = 43 */
(PID.TID 0000.0001)      . . .
(PID.TID 0000.0001)                 1.110716570323187E+06,      /* J = 78 */
(PID.TID 0000.0001)                 1.111393756086404E+06,      /* J = 79 */
(PID.TID 0000.0001)                 1.111732400545204E+06,      /* J = 80 */
(PID.TID 0000.0001)                 1.111732400545204E+06,      /* J = 81 */
(PID.TID 0000.0001)                 1.111393756086404E+06,      /* J = 82 */
(PID.TID 0000.0001)                 1.110716570323187E+06,      /* J = 83 */
(PID.TID 0000.0001)      . . .
(PID.TID 0000.0001)                 8.820301984897978E+05,      /* J =118 */
(PID.TID 0000.0001)                 8.700839750354744E+05,      /* J =119 */
(PID.TID 0000.0001)                 8.578727155736628E+05,      /* J =120 */
(PID.TID 0000.0001)                 8.454001397722876E+05,      /* J =121 */
(PID.TID 0000.0001)                 8.326700468987628E+05,      /* J =122 */
(PID.TID 0000.0001)                 8.196863146626968E+05,      /* J =123 */
(PID.TID 0000.0001)      . . .
(PID.TID 0000.0001)                 2.406320941092900E+05,      /* J =158 */
(PID.TID 0000.0001)                 2.216522321591896E+05,      /* J =159 */
(PID.TID 0000.0001)                 2.026048527919801E+05       /* J =160 */
(PID.TID 0000.0001)     ;
(PID.TID 0000.0001) dyC =  /* dyC(:,1,:,1) ( units: m ) */
(PID.TID 0000.0001)                 1.111774733520388E+05       /* I =  1 */
(PID.TID 0000.0001)     ;
(PID.TID 0000.0001) dyC =  /* dyC(1,:,1,:) ( units: m ) */
(PID.TID 0000.0001)   160 @  1.111774733520388E+05              /* J =  1:160 */
(PID.TID 0000.0001)     ;
(PID.TID 0000.0001) dxV =  /* dxV(:,1,:,1) ( units: m ) */
(PID.TID 0000.0001)                 1.930576564519526E+05       /* I =  1 */
(PID.TID 0000.0001)     ;
(PID.TID 0000.0001) dxV =  /* dxV(1,:,1,:) ( units: m ) */
(PID.TID 0000.0001)                 1.930576564519526E+05,      /* J =  1 */
(PID.TID 0000.0001)                 2.121366199880512E+05,      /* J =  2 */
(PID.TID 0000.0001)                 2.311509646546878E+05,      /* J =  3 */
(PID.TID 0000.0001)      . . .
(PID.TID 0000.0001)                 8.131005667268025E+05,      /* J = 38 */
(PID.TID 0000.0001)                 8.262096403121852E+05,      /* J = 39 */
(PID.TID 0000.0001)                 8.390670424374563E+05,      /* J = 40 */
(PID.TID 0000.0001)                 8.516688566133757E+05,      /* J = 41 */
(PID.TID 0000.0001)                 8.640112442052695E+05,      /* J = 42 */
(PID.TID 0000.0001)                 8.760904456023134E+05,      /* J = 43 */
(PID.TID 0000.0001)      . . .
(PID.TID 0000.0001)                 1.110251084887355E+06,      /* J = 78 */
(PID.TID 0000.0001)                 1.111097470391875E+06,      /* J = 79 */
(PID.TID 0000.0001)                 1.111605404843471E+06,      /* J = 80 */
(PID.TID 0000.0001)                 1.111774733520388E+06,      /* J = 81 */
(PID.TID 0000.0001)                 1.111605404843471E+06,      /* J = 82 */
(PID.TID 0000.0001)                 1.111097470391875E+06,      /* J = 83 */
(PID.TID 0000.0001)      . . .
(PID.TID 0000.0001)                 8.879027813627481E+05,      /* J =118 */
(PID.TID 0000.0001)                 8.760904456023134E+05,      /* J =119 */
(PID.TID 0000.0001)                 8.640112442052695E+05,      /* J =120 */
(PID.TID 0000.0001)                 8.516688566133757E+05,      /* J =121 */
(PID.TID 0000.0001)                 8.390670424374563E+05,      /* J =122 */
(PID.TID 0000.0001)                 8.262096403121852E+05,      /* J =123 */
(PID.TID 0000.0001)      . . .
(PID.TID 0000.0001)                 2.500948984982807E+05,      /* J =158 */
(PID.TID 0000.0001)                 2.311509646546878E+05,      /* J =159 */
(PID.TID 0000.0001)                 2.121366199880512E+05       /* J =160 */
(PID.TID 0000.0001)     ;
(PID.TID 0000.0001) dyU =  /* dyU(:,1,:,1) ( units: m ) */
(PID.TID 0000.0001)                 1.111774733520388E+05       /* I =  1 */
(PID.TID 0000.0001)     ;
(PID.TID 0000.0001) dyU =  /* dyU(1,:,1,:) ( units: m ) */
(PID.TID 0000.0001)   160 @  1.111774733520388E+05              /* J =  1:160 */
(PID.TID 0000.0001)     ;
(PID.TID 0000.0001) rA  =  /* rA (:,1,:,1) ( units: m^2 ) */
(PID.TID 0000.0001)                 2.252480972600775E+10       /* I =  1 */
(PID.TID 0000.0001)     ;
(PID.TID 0000.0001) rA  =  /* rA (1,:,1,:) ( units: m^2 ) */
(PID.TID 0000.0001)                 2.252480972600775E+10,      /* J =  1 */
(PID.TID 0000.0001)                 2.464242236022338E+10,      /* J =  2 */
(PID.TID 0000.0001)                 2.675252867386942E+10,      /* J =  3 */
(PID.TID 0000.0001)      . . .
(PID.TID 0000.0001)                 9.112949674382579E+10,      /* J = 38 */
(PID.TID 0000.0001)                 9.257297696713127E+10,      /* J = 39 */
(PID.TID 0000.0001)                 9.398825856487766E+10,      /* J = 40 */
(PID.TID 0000.0001)                 9.537491042857968E+10,      /* J = 41 */
(PID.TID 0000.0001)                 9.673251017064780E+10,      /* J = 42 */
(PID.TID 0000.0001)                 9.806064425305017E+10,      /* J = 43 */
(PID.TID 0000.0001)      . . .
(PID.TID 0000.0001)                 1.234850945635619E+11,      /* J = 78 */
(PID.TID 0000.0001)                 1.235603814101275E+11,      /* J = 79 */
(PID.TID 0000.0001)                 1.235980305675594E+11,      /* J = 80 */
(PID.TID 0000.0001)                 1.235980305675594E+11,      /* J = 81 */
(PID.TID 0000.0001)                 1.235603814101275E+11,      /* J = 82 */
(PID.TID 0000.0001)                 1.234850945635619E+11,      /* J = 83 */
(PID.TID 0000.0001)      . . .
(PID.TID 0000.0001)                 9.806064425305017E+10,      /* J =118 */
(PID.TID 0000.0001)                 9.673251017064780E+10,      /* J =119 */
(PID.TID 0000.0001)                 9.537491042857968E+10,      /* J =120 */
(PID.TID 0000.0001)                 9.398825856487766E+10,      /* J =121 */
(PID.TID 0000.0001)                 9.257297696713127E+10,      /* J =122 */
(PID.TID 0000.0001)                 9.112949674382579E+10,      /* J =123 */
(PID.TID 0000.0001)      . . .
(PID.TID 0000.0001)                 2.675252867386942E+10,      /* J =158 */
(PID.TID 0000.0001)                 2.464242236022338E+10,      /* J =159 */
(PID.TID 0000.0001)                 2.252480972600775E+10       /* J =160 */
(PID.TID 0000.0001)     ;
(PID.TID 0000.0001) rAw =  /* rAw(:,1,:,1) ( units: m^2 ) */
(PID.TID 0000.0001)                 2.252480972600775E+10       /* I =  1 */
(PID.TID 0000.0001)     ;
(PID.TID 0000.0001) rAw =  /* rAw(1,:,1,:) ( units: m^2 ) */
(PID.TID 0000.0001)                 2.252480972600775E+10,      /* J =  1 */
(PID.TID 0000.0001)                 2.464242236022338E+10,      /* J =  2 */
(PID.TID 0000.0001)                 2.675252867386942E+10,      /* J =  3 */
(PID.TID 0000.0001)      . . .
(PID.TID 0000.0001)                 9.112949674382579E+10,      /* J = 38 */
(PID.TID 0000.0001)                 9.257297696713127E+10,      /* J = 39 */
(PID.TID 0000.0001)                 9.398825856487766E+10,      /* J = 40 */
(PID.TID 0000.0001)                 9.537491042857968E+10,      /* J = 41 */
(PID.TID 0000.0001)                 9.673251017064780E+10,      /* J = 42 */
(PID.TID 0000.0001)                 9.806064425305017E+10,      /* J = 43 */
(PID.TID 0000.0001)      . . .
(PID.TID 0000.0001)                 1.234850945635619E+11,      /* J = 78 */
(PID.TID 0000.0001)                 1.235603814101275E+11,      /* J = 79 */
(PID.TID 0000.0001)                 1.235980305675594E+11,      /* J = 80 */
(PID.TID 0000.0001)                 1.235980305675594E+11,      /* J = 81 */
(PID.TID 0000.0001)                 1.235603814101275E+11,      /* J = 82 */
(PID.TID 0000.0001)                 1.234850945635619E+11,      /* J = 83 */
(PID.TID 0000.0001)      . . .
(PID.TID 0000.0001)                 9.806064425305017E+10,      /* J =118 */
(PID.TID 0000.0001)                 9.673251017064780E+10,      /* J =119 */
(PID.TID 0000.0001)                 9.537491042857968E+10,      /* J =120 */
(PID.TID 0000.0001)                 9.398825856487766E+10,      /* J =121 */
(PID.TID 0000.0001)                 9.257297696713127E+10,      /* J =122 */
(PID.TID 0000.0001)                 9.112949674382579E+10,      /* J =123 */
(PID.TID 0000.0001)      . . .
(PID.TID 0000.0001)                 2.675252867386942E+10,      /* J =158 */
(PID.TID 0000.0001)                 2.464242236022338E+10,      /* J =159 */
(PID.TID 0000.0001)                 2.252480972600775E+10       /* J =160 */
(PID.TID 0000.0001)     ;
(PID.TID 0000.0001) rAs =  /* rAs(:,1,:,1) ( units: m^2 ) */
(PID.TID 0000.0001)                 2.146339003140313E+10       /* I =  1 */
(PID.TID 0000.0001)     ;
(PID.TID 0000.0001) rAs =  /* rAs(1,:,1,:) ( units: m^2 ) */
(PID.TID 0000.0001)                 2.146339003140313E+10,      /* J =  1 */
(PID.TID 0000.0001)                 2.358451406914463E+10,      /* J =  2 */
(PID.TID 0000.0001)                 2.569845403543146E+10,      /* J =  3 */
(PID.TID 0000.0001)      . . .
(PID.TID 0000.0001)                 9.039731922134654E+10,      /* J = 38 */
(PID.TID 0000.0001)                 9.185473440230582E+10,      /* J = 39 */
(PID.TID 0000.0001)                 9.328416974134933E+10,      /* J = 40 */
(PID.TID 0000.0001)                 9.468518981862512E+10,      /* J = 41 */
(PID.TID 0000.0001)                 9.605736786984653E+10,      /* J = 42 */
(PID.TID 0000.0001)                 9.740028591628539E+10,      /* J = 43 */
(PID.TID 0000.0001)      . . .
(PID.TID 0000.0001)                 1.234333437257716E+11,      /* J = 78 */
(PID.TID 0000.0001)                 1.235274415333090E+11,      /* J = 79 */
(PID.TID 0000.0001)                 1.235839116855182E+11,      /* J = 80 */
(PID.TID 0000.0001)                 1.236027369810437E+11,      /* J = 81 */
(PID.TID 0000.0001)                 1.235839116855182E+11,      /* J = 82 */
(PID.TID 0000.0001)                 1.235274415333090E+11,      /* J = 83 */
(PID.TID 0000.0001)      . . .
(PID.TID 0000.0001)                 9.871353489209756E+10,      /* J =118 */
(PID.TID 0000.0001)                 9.740028591628539E+10,      /* J =119 */
(PID.TID 0000.0001)                 9.605736786984653E+10,      /* J =120 */
(PID.TID 0000.0001)                 9.468518981862512E+10,      /* J =121 */
(PID.TID 0000.0001)                 9.328416974134933E+10,      /* J =122 */
(PID.TID 0000.0001)                 9.185473440230582E+10,      /* J =123 */
(PID.TID 0000.0001)      . . .
(PID.TID 0000.0001)                 2.780456600367350E+10,      /* J =158 */
(PID.TID 0000.0001)                 2.569845403543146E+10,      /* J =159 */
(PID.TID 0000.0001)                 2.358451406914463E+10       /* J =160 */
(PID.TID 0000.0001)     ;
(PID.TID 0000.0001) globalArea = /* Integrated horizontal Area (m^2) */
(PID.TID 0000.0001)                 1.390377734574423E+13
(PID.TID 0000.0001)     ;
(PID.TID 0000.0001) // =======================================================
(PID.TID 0000.0001) // End of Model config. summary
(PID.TID 0000.0001) // =======================================================
(PID.TID 0000.0001) 
(PID.TID 0000.0001) == Packages configuration : Check & print summary ==
(PID.TID 0000.0001) 
(PID.TID 0000.0001) GAD_CHECK: #define ALLOW_GENERIC_ADVDIFF
(PID.TID 0000.0001) // =======================================================
(PID.TID 0000.0001) // CONFIG_CHECK : Normal End
(PID.TID 0000.0001) // =======================================================
(PID.TID 0000.0001) 
(PID.TID 0000.0001)  MDS_READ_FIELD: opening global file: init_temp.bin
(PID.TID 0000.0001) Start initial hydrostatic pressure computation
(PID.TID 0000.0001) Pressure is predetermined for buoyancyRelation OCEANIC
(PID.TID 0000.0001) 
(PID.TID 0000.0001)  write diagnostics summary to file ioUnit:      6
Iter.Nb:         0 ; Time(s):  0.0000000000000E+00
------------------------------------------------------------------------
2D/3D diagnostics: Number of lists:     3
------------------------------------------------------------------------
listId=    1 ; file name: Rho
 nFlds, nActive,       freq     &     phase        , nLev               
    1  |    1  |     86400.000000         0.000000 | 120
 levels:   1   2   3   4   5   6   7   8   9  10  11  12  13  14  15  16  17  18  19  20  21  22  23  24  25
 levels:  26  27  28  29  30  31  32  33  34  35  36  37  38  39  40  41  42  43  44  45  46  47  48  49  50
 levels:  51  52  53  54  55  56  57  58  59  60  61  62  63  64  65  66  67  68  69  70  71  72  73  74  75
 levels:  76  77  78  79  80  81  82  83  84  85  86  87  88  89  90  91  92  93  94  95  96  97  98  99 100
 levels: 101 102 103 104 105 106 107 108 109 110 111 112 113 114 115 116 117 118 119 120
 diag# | name   |   ipt  |  iMate | kLev|   count |   mate.C|           
    62 |RHOAnoma|      1 |      0 | 120 |       0 |
------------------------------------------------------------------------
listId=    2 ; file name: P0
 nFlds, nActive,       freq     &     phase        , nLev               
    1  |    1  |     86400.000000         0.000000 | 120
 levels:   1   2   3   4   5   6   7   8   9  10  11  12  13  14  15  16  17  18  19  20  21  22  23  24  25
 levels:  26  27  28  29  30  31  32  33  34  35  36  37  38  39  40  41  42  43  44  45  46  47  48  49  50
 levels:  51  52  53  54  55  56  57  58  59  60  61  62  63  64  65  66  67  68  69  70  71  72  73  74  75
 levels:  76  77  78  79  80  81  82  83  84  85  86  87  88  89  90  91  92  93  94  95  96  97  98  99 100
 levels: 101 102 103 104 105 106 107 108 109 110 111 112 113 114 115 116 117 118 119 120
 diag# | name   |   ipt  |  iMate | kLev|   count |   mate.C|           
    67 |PHIHYD  |    121 |      0 | 120 |       0 |
------------------------------------------------------------------------
listId=    3 ; file name: N2
 nFlds, nActive,       freq     &     phase        , nLev               
    1  |    1  |     86400.000000         0.000000 | 120
 levels:   1   2   3   4   5   6   7   8   9  10  11  12  13  14  15  16  17  18  19  20  21  22  23  24  25
 levels:  26  27  28  29  30  31  32  33  34  35  36  37  38  39  40  41  42  43  44  45  46  47  48  49  50
 levels:  51  52  53  54  55  56  57  58  59  60  61  62  63  64  65  66  67  68  69  70  71  72  73  74  75
 levels:  76  77  78  79  80  81  82  83  84  85  86  87  88  89  90  91  92  93  94  95  96  97  98  99 100
 levels: 101 102 103 104 105 106 107 108 109 110 111 112 113 114 115 116 117 118 119 120
 diag# | name   |   ipt  |  iMate | kLev|   count |   mate.C|           
    73 |DRHODR  |    241 |      0 | 120 |       0 |
------------------------------------------------------------------------
Global & Regional Statistics diagnostics: Number of lists:     1
------------------------------------------------------------------------
listId=   1 ; file name: dynStDiag
 nFlds, nActive,       freq     &     phase        |                    
    5  |    5  |      1800.000000         0.000000 |
 Regions:   0
 diag# | name   |   ipt  |  iMate |    Volume   |   mate-Vol. |         
    23 |ETAN    |      1 |      0 | 0.00000E+00 |
    30 |UVEL    |      2 |      0 | 0.00000E+00 |
    31 |VVEL    |    122 |      0 | 0.00000E+00 |
    32 |WVEL    |    242 |      0 | 0.00000E+00 |
    26 |THETA   |    362 |      0 | 0.00000E+00 |
------------------------------------------------------------------------
(PID.TID 0000.0001) // =======================================================
(PID.TID 0000.0001) // Model current state
(PID.TID 0000.0001) // =======================================================
(PID.TID 0000.0001) 
(PID.TID 0000.0001) // =======================================================
(PID.TID 0000.0001) // Begin MONITOR dynamic field statistics
(PID.TID 0000.0001) // =======================================================
(PID.TID 0000.0001) %MON time_tsnumber                =                     0
(PID.TID 0000.0001) %MON time_secondsf                =   0.0000000000000E+00
(PID.TID 0000.0001) %MON dynstat_eta_max              =   0.0000000000000E+00
(PID.TID 0000.0001) %MON dynstat_eta_min              =   0.0000000000000E+00
(PID.TID 0000.0001) %MON dynstat_eta_mean             =   0.0000000000000E+00
(PID.TID 0000.0001) %MON dynstat_eta_sd               =   0.0000000000000E+00
(PID.TID 0000.0001) %MON dynstat_eta_del2             =   0.0000000000000E+00
(PID.TID 0000.0001) %MON dynstat_uvel_max             =   0.0000000000000E+00
(PID.TID 0000.0001) %MON dynstat_uvel_min             =   0.0000000000000E+00
(PID.TID 0000.0001) %MON dynstat_uvel_mean            =   0.0000000000000E+00
(PID.TID 0000.0001) %MON dynstat_uvel_sd              =   0.0000000000000E+00
(PID.TID 0000.0001) %MON dynstat_uvel_del2            =   0.0000000000000E+00
(PID.TID 0000.0001) %MON dynstat_vvel_max             =   0.0000000000000E+00
(PID.TID 0000.0001) %MON dynstat_vvel_min             =   0.0000000000000E+00
(PID.TID 0000.0001) %MON dynstat_vvel_mean            =   0.0000000000000E+00
(PID.TID 0000.0001) %MON dynstat_vvel_sd              =   0.0000000000000E+00
(PID.TID 0000.0001) %MON dynstat_vvel_del2            =   0.0000000000000E+00
(PID.TID 0000.0001) %MON dynstat_wvel_max             =   0.0000000000000E+00
(PID.TID 0000.0001) %MON dynstat_wvel_min             =   0.0000000000000E+00
(PID.TID 0000.0001) %MON dynstat_wvel_mean            =   0.0000000000000E+00
(PID.TID 0000.0001) %MON dynstat_wvel_sd              =   0.0000000000000E+00
(PID.TID 0000.0001) %MON dynstat_wvel_del2            =   0.0000000000000E+00
(PID.TID 0000.0001) %MON dynstat_theta_max            =   1.1578986791979E+04
(PID.TID 0000.0001) %MON dynstat_theta_min            =   1.1578985792063E+04
(PID.TID 0000.0001) %MON dynstat_theta_mean           =   1.1578986295440E+04
(PID.TID 0000.0001) %MON dynstat_theta_sd             =   2.8874134881063E-04
(PID.TID 0000.0001) %MON dynstat_theta_del2           =   1.4446080486156E-04
(PID.TID 0000.0001) %MON dynstat_salt_max             =   0.0000000000000E+00
(PID.TID 0000.0001) %MON dynstat_salt_min             =   0.0000000000000E+00
(PID.TID 0000.0001) %MON dynstat_salt_mean            =   0.0000000000000E+00
(PID.TID 0000.0001) %MON dynstat_salt_sd              =   0.0000000000000E+00
(PID.TID 0000.0001) %MON dynstat_salt_del2            =   0.0000000000000E+00
(PID.TID 0000.0001) %MON extforcing_qnet_max          =   0.0000000000000E+00
(PID.TID 0000.0001) %MON extforcing_qnet_min          =   0.0000000000000E+00
(PID.TID 0000.0001) %MON extforcing_qnet_mean         =   0.0000000000000E+00
(PID.TID 0000.0001) %MON extforcing_qnet_sd           =   0.0000000000000E+00
(PID.TID 0000.0001) %MON extforcing_qnet_del2         =   0.0000000000000E+00
(PID.TID 0000.0001) %MON extforcing_qsw_max           =   0.0000000000000E+00
(PID.TID 0000.0001) %MON extforcing_qsw_min           =   0.0000000000000E+00
(PID.TID 0000.0001) %MON extforcing_qsw_mean          =   0.0000000000000E+00
(PID.TID 0000.0001) %MON extforcing_qsw_sd            =   0.0000000000000E+00
(PID.TID 0000.0001) %MON extforcing_qsw_del2          =   0.0000000000000E+00
(PID.TID 0000.0001) %MON extforcing_empmr_max         =   0.0000000000000E+00
(PID.TID 0000.0001) %MON extforcing_empmr_min         =   0.0000000000000E+00
(PID.TID 0000.0001) %MON extforcing_empmr_mean        =   0.0000000000000E+00
(PID.TID 0000.0001) %MON extforcing_empmr_sd          =   0.0000000000000E+00
(PID.TID 0000.0001) %MON extforcing_empmr_del2        =   0.0000000000000E+00
(PID.TID 0000.0001) %MON advcfl_uvel_max              =   0.0000000000000E+00
(PID.TID 0000.0001) %MON advcfl_vvel_max              =   0.0000000000000E+00
(PID.TID 0000.0001) %MON advcfl_wvel_max              =   0.0000000000000E+00
(PID.TID 0000.0001) %MON advcfl_W_hf_max              =   0.0000000000000E+00
(PID.TID 0000.0001) %MON pe_b_mean                    =   0.0000000000000E+00
(PID.TID 0000.0001) %MON ke_max                       =   0.0000000000000E+00
(PID.TID 0000.0001) %MON ke_mean                      =   0.0000000000000E+00
(PID.TID 0000.0001) %MON ke_vol                       =   3.4820518350516E+19
(PID.TID 0000.0001) %MON vort_r_min                   =   0.0000000000000E+00
(PID.TID 0000.0001) %MON vort_r_max                   =   0.0000000000000E+00
(PID.TID 0000.0001) %MON vort_a_mean                  =   2.3934612167700E-20
(PID.TID 0000.0001) %MON vort_a_sd                    =   8.2567010691386E-05
(PID.TID 0000.0001) %MON vort_p_mean                  =   2.3995565412335E-20
(PID.TID 0000.0001) %MON vort_p_sd                    =   8.3918501551279E-05
(PID.TID 0000.0001) %MON surfExpan_theta_mean         =   0.0000000000000E+00
(PID.TID 0000.0001) %MON surfExpan_salt_mean          =   0.0000000000000E+00
(PID.TID 0000.0001) // =======================================================
(PID.TID 0000.0001) // End MONITOR dynamic field statistics
(PID.TID 0000.0001) // =======================================================
(PID.TID 0000.0001) SOLVE_FOR_PRESSURE: putPmEinXvector =    F
(PID.TID 0000.0001) SOLVE_FOR_PRESSURE: zeroPsNH=    F , zeroMeanPnh=    F
(PID.TID 0000.0001) SOLVE_FOR_PRESSURE: oldFreeSurfTerm =    T
 cg2d: Sum(rhs),rhsMax =   2.08166817117217E-15  6.23431179295025E-01
(PID.TID 0000.0001)                    cg2d_init_res =    3.46474024101614E+00
(PID.TID 0000.0001)                       cg2d_iters =   109
(PID.TID 0000.0001)                         cg2d_res =    5.02778995776704E-14
 cg3d: Sum(rhs),rhsMax =  -2.26959943894212E-13  3.77126369864455E-02
(PID.TID 0000.0001)                    cg3d_init_res =    2.04417951952824E+01
(PID.TID 0000.0001)                       cg3d_iters =    40
(PID.TID 0000.0001)                         cg3d_res =    5.98248527627647E-03
(PID.TID 0000.0001) // =======================================================
(PID.TID 0000.0001) // Begin MONITOR dynamic field statistics
(PID.TID 0000.0001) // =======================================================
(PID.TID 0000.0001) %MON time_tsnumber                =                     1
(PID.TID 0000.0001) %MON time_secondsf                =   3.0000000000000E+02
(PID.TID 0000.0001) %MON dynstat_eta_max              =   2.4282644539665E-02
(PID.TID 0000.0001) %MON dynstat_eta_min              =  -1.8640707590678E-02
(PID.TID 0000.0001) %MON dynstat_eta_mean             =  -2.7915075906966E-16
(PID.TID 0000.0001) %MON dynstat_eta_sd               =   8.8787568536613E-03
(PID.TID 0000.0001) %MON dynstat_eta_del2             =   4.4055835620944E-03
(PID.TID 0000.0001) %MON dynstat_uvel_max             =   0.0000000000000E+00
(PID.TID 0000.0001) %MON dynstat_uvel_min             =   0.0000000000000E+00
(PID.TID 0000.0001) %MON dynstat_uvel_mean            =   0.0000000000000E+00
(PID.TID 0000.0001) %MON dynstat_uvel_sd              =   0.0000000000000E+00
(PID.TID 0000.0001) %MON dynstat_uvel_del2            =   0.0000000000000E+00
(PID.TID 0000.0001) %MON dynstat_vvel_max             =   1.1170656648111E-04
(PID.TID 0000.0001) %MON dynstat_vvel_min             =  -9.0413375750595E-05
(PID.TID 0000.0001) %MON dynstat_vvel_mean            =   2.2502117511240E-08
(PID.TID 0000.0001) %MON dynstat_vvel_sd              =   2.4124003041034E-05
(PID.TID 0000.0001) %MON dynstat_vvel_del2            =   1.2476425684155E-05
(PID.TID 0000.0001) %MON dynstat_wvel_max             =   1.2444993877763E-04
(PID.TID 0000.0001) %MON dynstat_wvel_min             =  -1.3712195763397E-04
(PID.TID 0000.0001) %MON dynstat_wvel_mean            =   1.1811584184184E-21
(PID.TID 0000.0001) %MON dynstat_wvel_sd              =   3.5080597217186E-05
(PID.TID 0000.0001) %MON dynstat_wvel_del2            =   1.9482980080744E-05
(PID.TID 0000.0001) %MON dynstat_theta_max            =   1.1578986784969E+04
(PID.TID 0000.0001) %MON dynstat_theta_min            =   1.1578985802768E+04
(PID.TID 0000.0001) %MON dynstat_theta_mean           =   1.1578986295440E+04
(PID.TID 0000.0001) %MON dynstat_theta_sd             =   2.6284458795542E-04
(PID.TID 0000.0001) %MON dynstat_theta_del2           =   1.3079814415139E-04
(PID.TID 0000.0001) %MON dynstat_salt_max             =   0.0000000000000E+00
(PID.TID 0000.0001) %MON dynstat_salt_min             =   0.0000000000000E+00
(PID.TID 0000.0001) %MON dynstat_salt_mean            =   0.0000000000000E+00
(PID.TID 0000.0001) %MON dynstat_salt_sd              =   0.0000000000000E+00
(PID.TID 0000.0001) %MON dynstat_salt_del2            =   0.0000000000000E+00
(PID.TID 0000.0001) %MON extforcing_qnet_max          =   0.0000000000000E+00
(PID.TID 0000.0001) %MON extforcing_qnet_min          =   0.0000000000000E+00
(PID.TID 0000.0001) %MON extforcing_qnet_mean         =   0.0000000000000E+00
(PID.TID 0000.0001) %MON extforcing_qnet_sd           =   0.0000000000000E+00
(PID.TID 0000.0001) %MON extforcing_qnet_del2         =   0.0000000000000E+00
(PID.TID 0000.0001) %MON extforcing_qsw_max           =   0.0000000000000E+00
(PID.TID 0000.0001) %MON extforcing_qsw_min           =   0.0000000000000E+00
(PID.TID 0000.0001) %MON extforcing_qsw_mean          =   0.0000000000000E+00
(PID.TID 0000.0001) %MON extforcing_qsw_sd            =   0.0000000000000E+00
(PID.TID 0000.0001) %MON extforcing_qsw_del2          =   0.0000000000000E+00
(PID.TID 0000.0001) %MON extforcing_empmr_max         =   0.0000000000000E+00
(PID.TID 0000.0001) %MON extforcing_empmr_min         =   0.0000000000000E+00
(PID.TID 0000.0001) %MON extforcing_empmr_mean        =   0.0000000000000E+00
(PID.TID 0000.0001) %MON extforcing_empmr_sd          =   0.0000000000000E+00
(PID.TID 0000.0001) %MON extforcing_empmr_del2        =   0.0000000000000E+00
(PID.TID 0000.0001) %MON advcfl_uvel_max              =   0.0000000000000E+00
(PID.TID 0000.0001) %MON advcfl_vvel_max              =   3.0142769874089E-07
(PID.TID 0000.0001) %MON advcfl_wvel_max              =   1.6454634916076E-06
(PID.TID 0000.0001) %MON advcfl_W_hf_max              =   1.6454634916076E-06
(PID.TID 0000.0001) %MON pe_b_mean                    =   1.5439772969259E-10
(PID.TID 0000.0001) %MON ke_max                       =   9.4151664063862E-09
(PID.TID 0000.0001) %MON ke_mean                      =   9.0401733369157E-10
(PID.TID 0000.0001) %MON ke_vol                       =   3.4820518350516E+19
(PID.TID 0000.0001) %MON vort_r_min                   =   0.0000000000000E+00
(PID.TID 0000.0001) %MON vort_r_max                   =   0.0000000000000E+00
(PID.TID 0000.0001) %MON vort_a_mean                  =   2.3934612167700E-20
(PID.TID 0000.0001) %MON vort_a_sd                    =   8.2567010691386E-05
(PID.TID 0000.0001) %MON vort_p_mean                  =   2.3995565412335E-20
(PID.TID 0000.0001) %MON vort_p_sd                    =   8.3918501551279E-05
(PID.TID 0000.0001) %MON surfExpan_theta_mean         =   8.3042728570188E-10
(PID.TID 0000.0001) %MON surfExpan_salt_mean          =   0.0000000000000E+00
(PID.TID 0000.0001) // =======================================================
(PID.TID 0000.0001) // End MONITOR dynamic field statistics
(PID.TID 0000.0001) // =======================================================
 cg2d: Sum(rhs),rhsMax =   1.13792396575219E-05  6.16046629521305E-01
(PID.TID 0000.0001)                    cg2d_init_res =    4.08326453962306E-02
(PID.TID 0000.0001)                       cg2d_iters =   103
(PID.TID 0000.0001)                         cg2d_res =    5.64538327940905E-14
 cg3d: Sum(rhs),rhsMax =  -1.13325147876875E-14  3.56377144195710E-02
(PID.TID 0000.0001)                    cg3d_init_res =    8.78621312639871E-01
(PID.TID 0000.0001)                       cg3d_iters =    40
(PID.TID 0000.0001)                         cg3d_res =    1.56677983693451E-03
(PID.TID 0000.0001) // =======================================================
(PID.TID 0000.0001) // Begin MONITOR dynamic field statistics
(PID.TID 0000.0001) // =======================================================
(PID.TID 0000.0001) %MON time_tsnumber                =                     2
(PID.TID 0000.0001) %MON time_secondsf                =   6.0000000000000E+02
(PID.TID 0000.0001) %MON dynstat_eta_max              =   2.4611961201397E-02
(PID.TID 0000.0001) %MON dynstat_eta_min              =  -1.9058583697354E-02
(PID.TID 0000.0001) %MON dynstat_eta_mean             =  -1.3613123664533E-06
(PID.TID 0000.0001) %MON dynstat_eta_sd               =   8.8948724253779E-03
(PID.TID 0000.0001) %MON dynstat_eta_del2             =   4.3605842872350E-03
(PID.TID 0000.0001) %MON dynstat_uvel_max             =   8.3222116234689E-06
(PID.TID 0000.0001) %MON dynstat_uvel_min             =  -8.5576145740870E-06
(PID.TID 0000.0001) %MON dynstat_uvel_mean            =  -1.0717547273081E-08
(PID.TID 0000.0001) %MON dynstat_uvel_sd              =   2.0210865755891E-06
(PID.TID 0000.0001) %MON dynstat_uvel_del2            =   9.5884864005767E-07
(PID.TID 0000.0001) %MON dynstat_vvel_max             =   2.1872531638711E-04
(PID.TID 0000.0001) %MON dynstat_vvel_min             =  -1.6462213637223E-04
(PID.TID 0000.0001) %MON dynstat_vvel_mean            =  -3.9366848916160E-08
(PID.TID 0000.0001) %MON dynstat_vvel_sd              =   4.0915321214855E-05
(PID.TID 0000.0001) %MON dynstat_vvel_del2            =   1.9305170942472E-05
(PID.TID 0000.0001) %MON dynstat_wvel_max             =   2.2563575937414E-04
(PID.TID 0000.0001) %MON dynstat_wvel_min             =  -2.5585336659052E-04
(PID.TID 0000.0001) %MON dynstat_wvel_mean            =  -1.6873691691691E-21
(PID.TID 0000.0001) %MON dynstat_wvel_sd              =   6.2192152702926E-05
(PID.TID 0000.0001) %MON dynstat_wvel_del2            =   3.2614156041546E-05
(PID.TID 0000.0001) %MON dynstat_theta_max            =   1.1578986782030E+04
(PID.TID 0000.0001) %MON dynstat_theta_min            =   1.1578985810102E+04
(PID.TID 0000.0001) %MON dynstat_theta_mean           =   1.1578986295439E+04
(PID.TID 0000.0001) %MON dynstat_theta_sd             =   2.4113783150119E-04
(PID.TID 0000.0001) %MON dynstat_theta_del2           =   1.1925336172272E-04
(PID.TID 0000.0001) %MON dynstat_salt_max             =   0.0000000000000E+00
(PID.TID 0000.0001) %MON dynstat_salt_min             =   0.0000000000000E+00
(PID.TID 0000.0001) %MON dynstat_salt_mean            =   0.0000000000000E+00
(PID.TID 0000.0001) %MON dynstat_salt_sd              =   0.0000000000000E+00
(PID.TID 0000.0001) %MON dynstat_salt_del2            =   0.0000000000000E+00
(PID.TID 0000.0001) %MON extforcing_qnet_max          =   0.0000000000000E+00
(PID.TID 0000.0001) %MON extforcing_qnet_min          =   0.0000000000000E+00
(PID.TID 0000.0001) %MON extforcing_qnet_mean         =   0.0000000000000E+00
(PID.TID 0000.0001) %MON extforcing_qnet_sd           =   0.0000000000000E+00
(PID.TID 0000.0001) %MON extforcing_qnet_del2         =   0.0000000000000E+00
(PID.TID 0000.0001) %MON extforcing_qsw_max           =   0.0000000000000E+00
(PID.TID 0000.0001) %MON extforcing_qsw_min           =   0.0000000000000E+00
(PID.TID 0000.0001) %MON extforcing_qsw_mean          =   0.0000000000000E+00
(PID.TID 0000.0001) %MON extforcing_qsw_sd            =   0.0000000000000E+00
(PID.TID 0000.0001) %MON extforcing_qsw_del2          =   0.0000000000000E+00
(PID.TID 0000.0001) %MON extforcing_empmr_max         =   0.0000000000000E+00
(PID.TID 0000.0001) %MON extforcing_empmr_min         =   0.0000000000000E+00
(PID.TID 0000.0001) %MON extforcing_empmr_mean        =   0.0000000000000E+00
(PID.TID 0000.0001) %MON extforcing_empmr_sd          =   0.0000000000000E+00
(PID.TID 0000.0001) %MON extforcing_empmr_del2        =   0.0000000000000E+00
(PID.TID 0000.0001) %MON advcfl_uvel_max              =   3.6236363406672E-09
(PID.TID 0000.0001) %MON advcfl_vvel_max              =   5.9020584780118E-07
(PID.TID 0000.0001) %MON advcfl_wvel_max              =   3.0702403990862E-06
(PID.TID 0000.0001) %MON advcfl_W_hf_max              =   3.0702403990862E-06
(PID.TID 0000.0001) %MON pe_b_mean                    =   1.5495872758366E-10
(PID.TID 0000.0001) %MON ke_max                       =   3.2894508532455E-08
(PID.TID 0000.0001) %MON ke_mean                      =   2.7662352575324E-09
(PID.TID 0000.0001) %MON ke_vol                       =   3.4820518350516E+19
(PID.TID 0000.0001) %MON vort_r_min                   =  -1.2795898335774E-10
(PID.TID 0000.0001) %MON vort_r_max                   =   1.0104142613085E-10
(PID.TID 0000.0001) %MON vort_a_mean                  =   8.0779316065989E-20
(PID.TID 0000.0001) %MON vort_a_sd                    =   8.2567010687062E-05
(PID.TID 0000.0001) %MON vort_p_mean                  =   8.0985033266629E-20
(PID.TID 0000.0001) %MON vort_p_sd                    =   8.3918501564463E-05
(PID.TID 0000.0001) %MON surfExpan_theta_mean         =   1.4064342791852E-10
(PID.TID 0000.0001) %MON surfExpan_salt_mean          =   0.0000000000000E+00
(PID.TID 0000.0001) // =======================================================
(PID.TID 0000.0001) // End MONITOR dynamic field statistics
(PID.TID 0000.0001) // =======================================================
 cg2d: Sum(rhs),rhsMax =   1.57127341858798E-05  6.08501206155487E-01
(PID.TID 0000.0001)                    cg2d_init_res =    4.12042390505815E-02
(PID.TID 0000.0001)                       cg2d_iters =   101
(PID.TID 0000.0001)                         cg2d_res =    7.39026136486922E-14
 cg3d: Sum(rhs),rhsMax =  -7.52705189843716E-14  3.56547506008201E-02
(PID.TID 0000.0001)                    cg3d_init_res =    5.67637983923654E-01
(PID.TID 0000.0001)                       cg3d_iters =    40
(PID.TID 0000.0001)                         cg3d_res =    1.43073115452963E-03
(PID.TID 0000.0001) // =======================================================
(PID.TID 0000.0001) // Begin MONITOR dynamic field statistics
(PID.TID 0000.0001) // =======================================================
(PID.TID 0000.0001) %MON time_tsnumber                =                     3
(PID.TID 0000.0001) %MON time_secondsf                =   9.0000000000000E+02
(PID.TID 0000.0001) %MON dynstat_eta_max              =   2.4893910848249E-02
(PID.TID 0000.0001) %MON dynstat_eta_min              =  -1.9390174411638E-02
(PID.TID 0000.0001) %MON dynstat_eta_mean             =  -1.8567103859574E-06
(PID.TID 0000.0001) %MON dynstat_eta_sd               =   8.8942100051061E-03
(PID.TID 0000.0001) %MON dynstat_eta_del2             =   4.3148872499571E-03
(PID.TID 0000.0001) %MON dynstat_uvel_max             =   1.9926380129265E-05
(PID.TID 0000.0001) %MON dynstat_uvel_min             =  -2.0327879002387E-05
(PID.TID 0000.0001) %MON dynstat_uvel_mean            =  -2.5889304478653E-08
(PID.TID 0000.0001) %MON dynstat_uvel_sd              =   4.5360057998672E-06
(PID.TID 0000.0001) %MON dynstat_uvel_del2            =   1.9700183844334E-06
(PID.TID 0000.0001) %MON dynstat_vvel_max             =   3.0549855442061E-04
(PID.TID 0000.0001) %MON dynstat_vvel_min             =  -2.3473394491536E-04
(PID.TID 0000.0001) %MON dynstat_vvel_mean            =  -1.3787463647467E-07
(PID.TID 0000.0001) %MON dynstat_vvel_sd              =   5.5452785738010E-05
(PID.TID 0000.0001) %MON dynstat_vvel_del2            =   2.4942358335672E-05
(PID.TID 0000.0001) %MON dynstat_wvel_max             =   3.1626582000963E-04
(PID.TID 0000.0001) %MON dynstat_wvel_min             =  -3.6560186654663E-04
(PID.TID 0000.0001) %MON dynstat_wvel_mean            =  -3.6559665331998E-22
(PID.TID 0000.0001) %MON dynstat_wvel_sd              =   8.6600976803033E-05
(PID.TID 0000.0001) %MON dynstat_wvel_del2            =   4.3931374018477E-05
(PID.TID 0000.0001) %MON dynstat_theta_max            =   1.1578986778296E+04
(PID.TID 0000.0001) %MON dynstat_theta_min            =   1.1578985813898E+04
(PID.TID 0000.0001) %MON dynstat_theta_mean           =   1.1578986295439E+04
(PID.TID 0000.0001) %MON dynstat_theta_sd             =   2.2290142951860E-04
(PID.TID 0000.0001) %MON dynstat_theta_del2           =   1.0946176844242E-04
(PID.TID 0000.0001) %MON dynstat_salt_max             =   0.0000000000000E+00
(PID.TID 0000.0001) %MON dynstat_salt_min             =   0.0000000000000E+00
(PID.TID 0000.0001) %MON dynstat_salt_mean            =   0.0000000000000E+00
(PID.TID 0000.0001) %MON dynstat_salt_sd              =   0.0000000000000E+00
(PID.TID 0000.0001) %MON dynstat_salt_del2            =   0.0000000000000E+00
(PID.TID 0000.0001) %MON extforcing_qnet_max          =   0.0000000000000E+00
(PID.TID 0000.0001) %MON extforcing_qnet_min          =   0.0000000000000E+00
(PID.TID 0000.0001) %MON extforcing_qnet_mean         =   0.0000000000000E+00
(PID.TID 0000.0001) %MON extforcing_qnet_sd           =   0.0000000000000E+00
(PID.TID 0000.0001) %MON extforcing_qnet_del2         =   0.0000000000000E+00
(PID.TID 0000.0001) %MON extforcing_qsw_max           =   0.0000000000000E+00
(PID.TID 0000.0001) %MON extforcing_qsw_min           =   0.0000000000000E+00
(PID.TID 0000.0001) %MON extforcing_qsw_mean          =   0.0000000000000E+00
(PID.TID 0000.0001) %MON extforcing_qsw_sd            =   0.0000000000000E+00
(PID.TID 0000.0001) %MON extforcing_qsw_del2          =   0.0000000000000E+00
(PID.TID 0000.0001) %MON extforcing_empmr_max         =   0.0000000000000E+00
(PID.TID 0000.0001) %MON extforcing_empmr_min         =   0.0000000000000E+00
(PID.TID 0000.0001) %MON extforcing_empmr_mean        =   0.0000000000000E+00
(PID.TID 0000.0001) %MON extforcing_empmr_sd          =   0.0000000000000E+00
(PID.TID 0000.0001) %MON extforcing_empmr_del2        =   0.0000000000000E+00
(PID.TID 0000.0001) %MON advcfl_uvel_max              =   8.6111836534354E-09
(PID.TID 0000.0001) %MON advcfl_vvel_max              =   8.2435374328015E-07
(PID.TID 0000.0001) %MON advcfl_wvel_max              =   4.3872223985596E-06
(PID.TID 0000.0001) %MON advcfl_W_hf_max              =   4.3872223985596E-06
(PID.TID 0000.0001) %MON pe_b_mean                    =   1.5493565134681E-10
(PID.TID 0000.0001) %MON ke_max                       =   6.7346774345761E-08
(PID.TID 0000.0001) %MON ke_mean                      =   5.2847180471676E-09
(PID.TID 0000.0001) %MON ke_vol                       =   3.4820518350516E+19
(PID.TID 0000.0001) %MON vort_r_min                   =  -2.9222158371241E-10
(PID.TID 0000.0001) %MON vort_r_max                   =   2.2242612037660E-10
(PID.TID 0000.0001) %MON vort_a_mean                  =  -1.0172210171273E-19
(PID.TID 0000.0001) %MON vort_a_sd                    =   8.2567010682149E-05
(PID.TID 0000.0001) %MON vort_p_mean                  =  -1.0198115300242E-19
(PID.TID 0000.0001) %MON vort_p_sd                    =   8.3918501589168E-05
(PID.TID 0000.0001) %MON surfExpan_theta_mean         =  -3.1830005140134E-11
(PID.TID 0000.0001) %MON surfExpan_salt_mean          =   0.0000000000000E+00
(PID.TID 0000.0001) // =======================================================
(PID.TID 0000.0001) // End MONITOR dynamic field statistics
(PID.TID 0000.0001) // =======================================================
 cg2d: Sum(rhs),rhsMax =   1.86212749630210E-05  6.01087269098132E-01
(PID.TID 0000.0001)                    cg2d_init_res =    4.09994932787509E-02
(PID.TID 0000.0001)                       cg2d_iters =   101
(PID.TID 0000.0001)                         cg2d_res =    8.28433044095046E-14
 cg3d: Sum(rhs),rhsMax =   1.25952200058510E-13  3.53822738132735E-02
(PID.TID 0000.0001)                    cg3d_init_res =    3.53130299379141E-01
(PID.TID 0000.0001)                       cg3d_iters =    40
(PID.TID 0000.0001)                         cg3d_res =    8.40988836193909E-04
(PID.TID 0000.0001) // =======================================================
(PID.TID 0000.0001) // Begin MONITOR dynamic field statistics
(PID.TID 0000.0001) // =======================================================
(PID.TID 0000.0001) %MON time_tsnumber                =                     4
(PID.TID 0000.0001) %MON time_secondsf                =   1.2000000000000E+03
(PID.TID 0000.0001) %MON dynstat_eta_max              =   2.4964034143106E-02
(PID.TID 0000.0001) %MON dynstat_eta_min              =  -1.9525883641149E-02
(PID.TID 0000.0001) %MON dynstat_eta_mean             =  -2.1735913772872E-06
(PID.TID 0000.0001) %MON dynstat_eta_sd               =   8.8669049684366E-03
(PID.TID 0000.0001) %MON dynstat_eta_del2             =   4.2699664702130E-03
(PID.TID 0000.0001) %MON dynstat_uvel_max             =   3.4731066765641E-05
(PID.TID 0000.0001) %MON dynstat_uvel_min             =  -3.5084983596904E-05
(PID.TID 0000.0001) %MON dynstat_uvel_mean            =  -4.1010199213312E-08
(PID.TID 0000.0001) %MON dynstat_uvel_sd              =   7.6513982699380E-06
(PID.TID 0000.0001) %MON dynstat_uvel_del2            =   3.1514300040488E-06
(PID.TID 0000.0001) %MON dynstat_vvel_max             =   3.7785392718318E-04
(PID.TID 0000.0001) %MON dynstat_vvel_min             =  -2.9465861600585E-04
(PID.TID 0000.0001) %MON dynstat_vvel_mean            =  -2.2538135198070E-07
(PID.TID 0000.0001) %MON dynstat_vvel_sd              =   6.7840736897362E-05
(PID.TID 0000.0001) %MON dynstat_vvel_del2            =   2.9113988920190E-05
(PID.TID 0000.0001) %MON dynstat_wvel_max             =   3.9611919469593E-04
(PID.TID 0000.0001) %MON dynstat_wvel_min             =  -4.6619781055239E-04
(PID.TID 0000.0001) %MON dynstat_wvel_mean            =   7.5650384417750E-21
(PID.TID 0000.0001) %MON dynstat_wvel_sd              =   1.0829575837074E-04
(PID.TID 0000.0001) %MON dynstat_wvel_del2            =   5.3206569183857E-05
(PID.TID 0000.0001) %MON dynstat_theta_max            =   1.1578986773892E+04
(PID.TID 0000.0001) %MON dynstat_theta_min            =   1.1578985818062E+04
(PID.TID 0000.0001) %MON dynstat_theta_mean           =   1.1578986295440E+04
(PID.TID 0000.0001) %MON dynstat_theta_sd             =   2.0753016463103E-04
(PID.TID 0000.0001) %MON dynstat_theta_del2           =   1.0116902377642E-04
(PID.TID 0000.0001) %MON dynstat_salt_max             =   0.0000000000000E+00
(PID.TID 0000.0001) %MON dynstat_salt_min             =   0.0000000000000E+00
(PID.TID 0000.0001) %MON dynstat_salt_mean            =   0.0000000000000E+00
(PID.TID 0000.0001) %MON dynstat_salt_sd              =   0.0000000000000E+00
(PID.TID 0000.0001) %MON dynstat_salt_del2            =   0.0000000000000E+00
(PID.TID 0000.0001) %MON extforcing_qnet_max          =   0.0000000000000E+00
(PID.TID 0000.0001) %MON extforcing_qnet_min          =   0.0000000000000E+00
(PID.TID 0000.0001) %MON extforcing_qnet_mean         =   0.0000000000000E+00
(PID.TID 0000.0001) %MON extforcing_qnet_sd           =   0.0000000000000E+00
(PID.TID 0000.0001) %MON extforcing_qnet_del2         =   0.0000000000000E+00
(PID.TID 0000.0001) %MON extforcing_qsw_max           =   0.0000000000000E+00
(PID.TID 0000.0001) %MON extforcing_qsw_min           =   0.0000000000000E+00
(PID.TID 0000.0001) %MON extforcing_qsw_mean          =   0.0000000000000E+00
(PID.TID 0000.0001) %MON extforcing_qsw_sd            =   0.0000000000000E+00
(PID.TID 0000.0001) %MON extforcing_qsw_del2          =   0.0000000000000E+00
(PID.TID 0000.0001) %MON extforcing_empmr_max         =   0.0000000000000E+00
(PID.TID 0000.0001) %MON extforcing_empmr_min         =   0.0000000000000E+00
(PID.TID 0000.0001) %MON extforcing_empmr_mean        =   0.0000000000000E+00
(PID.TID 0000.0001) %MON extforcing_empmr_sd          =   0.0000000000000E+00
(PID.TID 0000.0001) %MON extforcing_empmr_del2        =   0.0000000000000E+00
(PID.TID 0000.0001) %MON advcfl_uvel_max              =   1.5222091193514E-08
(PID.TID 0000.0001) %MON advcfl_vvel_max              =   1.0195966389344E-06
(PID.TID 0000.0001) %MON advcfl_wvel_max              =   5.5943737266286E-06
(PID.TID 0000.0001) %MON advcfl_W_hf_max              =   5.5943737266286E-06
(PID.TID 0000.0001) %MON pe_b_mean                    =   1.5398581577463E-10
(PID.TID 0000.0001) %MON ke_max                       =   1.0983331379900E-07
(PID.TID 0000.0001) %MON ke_mean                      =   8.1744024536420E-09
(PID.TID 0000.0001) %MON ke_vol                       =   3.4820518350516E+19
(PID.TID 0000.0001) %MON vort_r_min                   =  -4.9167770529407E-10
(PID.TID 0000.0001) %MON vort_r_max                   =   3.6555171965242E-10
(PID.TID 0000.0001) %MON vort_a_mean                  =  -1.0172210171273E-19
(PID.TID 0000.0001) %MON vort_a_sd                    =   8.2567010677941E-05
(PID.TID 0000.0001) %MON vort_p_mean                  =  -1.0198115300242E-19
(PID.TID 0000.0001) %MON vort_p_sd                    =   8.3918501625495E-05
(PID.TID 0000.0001) %MON surfExpan_theta_mean         =  -2.3734758676124E-11
(PID.TID 0000.0001) %MON surfExpan_salt_mean          =   0.0000000000000E+00
(PID.TID 0000.0001) // =======================================================
(PID.TID 0000.0001) // End MONITOR dynamic field statistics
(PID.TID 0000.0001) // =======================================================
 cg2d: Sum(rhs),rhsMax =   2.36873843507124E-05  5.93802186138225E-01
(PID.TID 0000.0001)                    cg2d_init_res =    4.08484600943317E-02
(PID.TID 0000.0001)                       cg2d_iters =   101
(PID.TID 0000.0001)                         cg2d_res =    6.37961052831391E-14
 cg3d: Sum(rhs),rhsMax =  -1.96737157814875E-13  3.49819885337642E-02
(PID.TID 0000.0001)                    cg3d_init_res =    3.72139297579925E-01
(PID.TID 0000.0001)                       cg3d_iters =    40
(PID.TID 0000.0001)                         cg3d_res =    7.68309063139910E-04
(PID.TID 0000.0001) // =======================================================
(PID.TID 0000.0001) // Begin MONITOR dynamic field statistics
(PID.TID 0000.0001) // =======================================================
(PID.TID 0000.0001) %MON time_tsnumber                =                     5
(PID.TID 0000.0001) %MON time_secondsf                =   1.5000000000000E+03
(PID.TID 0000.0001) %MON dynstat_eta_max              =   2.4812987877015E-02
(PID.TID 0000.0001) %MON dynstat_eta_min              =  -1.9479674397286E-02
(PID.TID 0000.0001) %MON dynstat_eta_mean             =  -2.7314286402670E-06
(PID.TID 0000.0001) %MON dynstat_eta_sd               =   8.8128035854054E-03
(PID.TID 0000.0001) %MON dynstat_eta_del2             =   4.2257604796637E-03
(PID.TID 0000.0001) %MON dynstat_uvel_max             =   5.2250088878089E-05
(PID.TID 0000.0001) %MON dynstat_uvel_min             =  -5.2327990538163E-05
(PID.TID 0000.0001) %MON dynstat_uvel_mean            =  -5.2810687034595E-08
(PID.TID 0000.0001) %MON dynstat_uvel_sd              =   1.1233403576676E-05
(PID.TID 0000.0001) %MON dynstat_uvel_del2            =   4.4047171851620E-06
(PID.TID 0000.0001) %MON dynstat_vvel_max             =   4.4114402251424E-04
(PID.TID 0000.0001) %MON dynstat_vvel_min             =  -3.4807215234746E-04
(PID.TID 0000.0001) %MON dynstat_vvel_mean            =  -2.8086365590571E-07
(PID.TID 0000.0001) %MON dynstat_vvel_sd              =   7.8704289297646E-05
(PID.TID 0000.0001) %MON dynstat_vvel_del2            =   3.2371647011391E-05
(PID.TID 0000.0001) %MON dynstat_wvel_max             =   4.7197229487146E-04
(PID.TID 0000.0001) %MON dynstat_wvel_min             =  -5.5848900344775E-04
(PID.TID 0000.0001) %MON dynstat_wvel_mean            =  -1.3836427187187E-20
(PID.TID 0000.0001) %MON dynstat_wvel_sd              =   1.2776101749696E-04
(PID.TID 0000.0001) %MON dynstat_wvel_del2            =   6.0922041914599E-05
(PID.TID 0000.0001) %MON dynstat_theta_max            =   1.1578986768930E+04
(PID.TID 0000.0001) %MON dynstat_theta_min            =   1.1578985822551E+04
(PID.TID 0000.0001) %MON dynstat_theta_mean           =   1.1578986295440E+04
(PID.TID 0000.0001) %MON dynstat_theta_sd             =   1.9451780278060E-04
(PID.TID 0000.0001) %MON dynstat_theta_del2           =   9.4093567518337E-05
(PID.TID 0000.0001) %MON dynstat_salt_max             =   0.0000000000000E+00
(PID.TID 0000.0001) %MON dynstat_salt_min             =   0.0000000000000E+00
(PID.TID 0000.0001) %MON dynstat_salt_mean            =   0.0000000000000E+00
(PID.TID 0000.0001) %MON dynstat_salt_sd              =   0.0000000000000E+00
(PID.TID 0000.0001) %MON dynstat_salt_del2            =   0.0000000000000E+00
(PID.TID 0000.0001) %MON extforcing_qnet_max          =   0.0000000000000E+00
(PID.TID 0000.0001) %MON extforcing_qnet_min          =   0.0000000000000E+00
(PID.TID 0000.0001) %MON extforcing_qnet_mean         =   0.0000000000000E+00
(PID.TID 0000.0001) %MON extforcing_qnet_sd           =   0.0000000000000E+00
(PID.TID 0000.0001) %MON extforcing_qnet_del2         =   0.0000000000000E+00
(PID.TID 0000.0001) %MON extforcing_qsw_max           =   0.0000000000000E+00
(PID.TID 0000.0001) %MON extforcing_qsw_min           =   0.0000000000000E+00
(PID.TID 0000.0001) %MON extforcing_qsw_mean          =   0.0000000000000E+00
(PID.TID 0000.0001) %MON extforcing_qsw_sd            =   0.0000000000000E+00
(PID.TID 0000.0001) %MON extforcing_qsw_del2          =   0.0000000000000E+00
(PID.TID 0000.0001) %MON extforcing_empmr_max         =   0.0000000000000E+00
(PID.TID 0000.0001) %MON extforcing_empmr_min         =   0.0000000000000E+00
(PID.TID 0000.0001) %MON extforcing_empmr_mean        =   0.0000000000000E+00
(PID.TID 0000.0001) %MON extforcing_empmr_sd          =   0.0000000000000E+00
(PID.TID 0000.0001) %MON extforcing_empmr_del2        =   0.0000000000000E+00
(PID.TID 0000.0001) %MON advcfl_uvel_max              =   2.3425810948473E-08
(PID.TID 0000.0001) %MON advcfl_vvel_max              =   1.1903778954862E-06
(PID.TID 0000.0001) %MON advcfl_wvel_max              =   6.7018680413730E-06
(PID.TID 0000.0001) %MON advcfl_W_hf_max              =   6.7018680413730E-06
(PID.TID 0000.0001) %MON pe_b_mean                    =   1.5211246626596E-10
(PID.TID 0000.0001) %MON ke_max                       =   1.5816616560041E-07
(PID.TID 0000.0001) %MON ke_mean                      =   1.1294016272627E-08
(PID.TID 0000.0001) %MON ke_vol                       =   3.4820518350516E+19
(PID.TID 0000.0001) %MON vort_r_min                   =  -7.1635641561269E-10
(PID.TID 0000.0001) %MON vort_r_max                   =   5.2991804913916E-10
(PID.TID 0000.0001) %MON vort_a_mean                  =   4.1885571293476E-20
(PID.TID 0000.0001) %MON vort_a_sd                    =   8.2567010675093E-05
(PID.TID 0000.0001) %MON vort_p_mean                  =   4.1992239471586E-20
(PID.TID 0000.0001) %MON vort_p_sd                    =   8.3918501673174E-05
(PID.TID 0000.0001) %MON surfExpan_theta_mean         =  -7.9286638354558E-12
(PID.TID 0000.0001) %MON surfExpan_salt_mean          =   0.0000000000000E+00
(PID.TID 0000.0001) // =======================================================
(PID.TID 0000.0001) // End MONITOR dynamic field statistics
(PID.TID 0000.0001) // =======================================================
 cg2d: Sum(rhs),rhsMax =   3.06229681275860E-05  5.86613937480596E-01
(PID.TID 0000.0001)                    cg2d_init_res =    4.07753270598323E-02
(PID.TID 0000.0001)                       cg2d_iters =   101
(PID.TID 0000.0001)                         cg2d_res =    6.05728015384349E-14
 cg3d: Sum(rhs),rhsMax =  -1.49654594272519E-14  3.46211865286717E-02
(PID.TID 0000.0001)                    cg3d_init_res =    3.48812793511154E-01
(PID.TID 0000.0001)                       cg3d_iters =    40
(PID.TID 0000.0001)                         cg3d_res =    5.06083226582340E-04
(PID.TID 0000.0001) // =======================================================
(PID.TID 0000.0001) // Begin MONITOR dynamic field statistics
(PID.TID 0000.0001) // =======================================================
(PID.TID 0000.0001) %MON time_tsnumber                =                     6
(PID.TID 0000.0001) %MON time_secondsf                =   1.8000000000000E+03
(PID.TID 0000.0001) %MON dynstat_eta_max              =   2.4499538599132E-02
(PID.TID 0000.0001) %MON dynstat_eta_min              =  -1.9305364897568E-02
(PID.TID 0000.0001) %MON dynstat_eta_mean             =  -3.4884348729425E-06
(PID.TID 0000.0001) %MON dynstat_eta_sd               =   8.7407226563809E-03
(PID.TID 0000.0001) %MON dynstat_eta_del2             =   4.1821150482944E-03
(PID.TID 0000.0001) %MON dynstat_uvel_max             =   7.2104888257059E-05
(PID.TID 0000.0001) %MON dynstat_uvel_min             =  -7.1654611724721E-05
(PID.TID 0000.0001) %MON dynstat_uvel_mean            =  -5.9095889004241E-08
(PID.TID 0000.0001) %MON dynstat_uvel_sd              =   1.5211163035614E-05
(PID.TID 0000.0001) %MON dynstat_uvel_del2            =   5.6992168466282E-06
(PID.TID 0000.0001) %MON dynstat_vvel_max             =   4.9775288920550E-04
(PID.TID 0000.0001) %MON dynstat_vvel_min             =  -3.9627313872558E-04
(PID.TID 0000.0001) %MON dynstat_vvel_mean            =  -2.9360804326804E-07
(PID.TID 0000.0001) %MON dynstat_vvel_sd              =   8.8344831283976E-05
(PID.TID 0000.0001) %MON dynstat_vvel_del2            =   3.4889502919103E-05
(PID.TID 0000.0001) %MON dynstat_wvel_max             =   5.4227689151305E-04
(PID.TID 0000.0001) %MON dynstat_wvel_min             =  -6.4311255551738E-04
(PID.TID 0000.0001) %MON dynstat_wvel_mean            =   3.8528262696029E-21
(PID.TID 0000.0001) %MON dynstat_wvel_sd              =   1.4530564296551E-04
(PID.TID 0000.0001) %MON dynstat_wvel_del2            =   6.7326382098746E-05
(PID.TID 0000.0001) %MON dynstat_theta_max            =   1.1578986763506E+04
(PID.TID 0000.0001) %MON dynstat_theta_min            =   1.1578985827322E+04
(PID.TID 0000.0001) %MON dynstat_theta_mean           =   1.1578986295439E+04
(PID.TID 0000.0001) %MON dynstat_theta_sd             =   1.8344352226791E-04
(PID.TID 0000.0001) %MON dynstat_theta_del2           =   8.8042383097822E-05
(PID.TID 0000.0001) %MON dynstat_salt_max             =   0.0000000000000E+00
(PID.TID 0000.0001) %MON dynstat_salt_min             =   0.0000000000000E+00
(PID.TID 0000.0001) %MON dynstat_salt_mean            =   0.0000000000000E+00
(PID.TID 0000.0001) %MON dynstat_salt_sd              =   0.0000000000000E+00
(PID.TID 0000.0001) %MON dynstat_salt_del2            =   0.0000000000000E+00
(PID.TID 0000.0001) %MON extforcing_qnet_max          =   0.0000000000000E+00
(PID.TID 0000.0001) %MON extforcing_qnet_min          =   0.0000000000000E+00
(PID.TID 0000.0001) %MON extforcing_qnet_mean         =   0.0000000000000E+00
(PID.TID 0000.0001) %MON extforcing_qnet_sd           =   0.0000000000000E+00
(PID.TID 0000.0001) %MON extforcing_qnet_del2         =   0.0000000000000E+00
(PID.TID 0000.0001) %MON extforcing_qsw_max           =   0.0000000000000E+00
(PID.TID 0000.0001) %MON extforcing_qsw_min           =   0.0000000000000E+00
(PID.TID 0000.0001) %MON extforcing_qsw_mean          =   0.0000000000000E+00
(PID.TID 0000.0001) %MON extforcing_qsw_sd            =   0.0000000000000E+00
(PID.TID 0000.0001) %MON extforcing_qsw_del2          =   0.0000000000000E+00
(PID.TID 0000.0001) %MON extforcing_empmr_max         =   0.0000000000000E+00
(PID.TID 0000.0001) %MON extforcing_empmr_min         =   0.0000000000000E+00
(PID.TID 0000.0001) %MON extforcing_empmr_mean        =   0.0000000000000E+00
(PID.TID 0000.0001) %MON extforcing_empmr_sd          =   0.0000000000000E+00
(PID.TID 0000.0001) %MON extforcing_empmr_del2        =   0.0000000000000E+00
(PID.TID 0000.0001) %MON advcfl_uvel_max              =   3.2790502729805E-08
(PID.TID 0000.0001) %MON advcfl_vvel_max              =   1.3431306024451E-06
(PID.TID 0000.0001) %MON advcfl_wvel_max              =   7.7173506662086E-06
(PID.TID 0000.0001) %MON advcfl_W_hf_max              =   7.7173506662086E-06
(PID.TID 0000.0001) %MON pe_b_mean                    =   1.4963436119499E-10
(PID.TID 0000.0001) %MON ke_max                       =   2.1056906010460E-07
(PID.TID 0000.0001) %MON ke_mean                      =   1.4539300748258E-08
(PID.TID 0000.0001) %MON ke_vol                       =   3.4820518350516E+19
(PID.TID 0000.0001) %MON vort_r_min                   =  -9.5899556572423E-10
(PID.TID 0000.0001) %MON vort_r_max                   =   7.1233915573179E-10
(PID.TID 0000.0001) %MON vort_a_mean                  =   5.3852877377326E-20
(PID.TID 0000.0001) %MON vort_a_sd                    =   8.2567010673886E-05
(PID.TID 0000.0001) %MON vort_p_mean                  =   5.3990022177753E-20
(PID.TID 0000.0001) %MON vort_p_sd                    =   8.3918501731318E-05
(PID.TID 0000.0001) %MON surfExpan_theta_mean         =  -7.2418844166295E-12
(PID.TID 0000.0001) %MON surfExpan_salt_mean          =   0.0000000000000E+00
(PID.TID 0000.0001) // =======================================================
(PID.TID 0000.0001) // End MONITOR dynamic field statistics
(PID.TID 0000.0001) // =======================================================
 Compute Stats, Diag. #     23  ETAN      vol(   0 ): 8.342E+13  Parms: SM      M1      
 Compute Stats, Diag. #     30  UVEL      vol(   0 ): 2.503E+20  Parms: UU      MR      
 Compute Stats, Diag. #     31  VVEL      vol(   0 ): 2.498E+20  Parms: VV      MR      
 Compute Stats, Diag. #     32  WVEL      vol(   0 ): 2.492E+20  Parms: WM      LR      
 Compute Stats, Diag. #     26  THETA     vol(   0 ): 2.503E+20  Parms: SM      MR      
 cg2d: Sum(rhs),rhsMax =   3.76198628572744E-05  5.79525107602442E-01
(PID.TID 0000.0001)                    cg2d_init_res =    4.07078966085347E-02
(PID.TID 0000.0001)                       cg2d_iters =   101
(PID.TID 0000.0001)                         cg2d_res =    6.17422629971612E-14
 cg3d: Sum(rhs),rhsMax =   3.38820117795624E-13  3.42900438003629E-02
(PID.TID 0000.0001)                    cg3d_init_res =    3.46880284202024E-01
(PID.TID 0000.0001)                       cg3d_iters =    40
(PID.TID 0000.0001)                         cg3d_res =    5.05003235869189E-04
(PID.TID 0000.0001) // =======================================================
(PID.TID 0000.0001) // Begin MONITOR dynamic field statistics
(PID.TID 0000.0001) // =======================================================
(PID.TID 0000.0001) %MON time_tsnumber                =                     7
(PID.TID 0000.0001) %MON time_secondsf                =   2.1000000000000E+03
(PID.TID 0000.0001) %MON dynstat_eta_max              =   2.4112491873629E-02
(PID.TID 0000.0001) %MON dynstat_eta_min              =  -1.9082099052940E-02
(PID.TID 0000.0001) %MON dynstat_eta_mean             =  -4.2337033473490E-06
(PID.TID 0000.0001) %MON dynstat_eta_sd               =   8.6641689678512E-03
(PID.TID 0000.0001) %MON dynstat_eta_del2             =   4.1389895629686E-03
(PID.TID 0000.0001) %MON dynstat_uvel_max             =   9.3952328776018E-05
(PID.TID 0000.0001) %MON dynstat_uvel_min             =  -9.2726717107741E-05
(PID.TID 0000.0001) %MON dynstat_uvel_mean            =  -5.8704912783343E-08
(PID.TID 0000.0001) %MON dynstat_uvel_sd              =   1.9522682890507E-05
(PID.TID 0000.0001) %MON dynstat_uvel_del2            =   7.0027817557540E-06
(PID.TID 0000.0001) %MON dynstat_vvel_max             =   5.4861344367232E-04
(PID.TID 0000.0001) %MON dynstat_vvel_min             =  -4.3985373773271E-04
(PID.TID 0000.0001) %MON dynstat_vvel_mean            =  -2.6774454573395E-07
(PID.TID 0000.0001) %MON dynstat_vvel_sd              =   9.6999236846894E-05
(PID.TID 0000.0001) %MON dynstat_vvel_del2            =   3.6851339512553E-05
(PID.TID 0000.0001) %MON dynstat_wvel_max             =   6.0664186867744E-04
(PID.TID 0000.0001) %MON dynstat_wvel_min             =  -7.2079462837991E-04
(PID.TID 0000.0001) %MON dynstat_wvel_mean            =  -6.4682484818150E-21
(PID.TID 0000.0001) %MON dynstat_wvel_sd              =   1.6119576881538E-04
(PID.TID 0000.0001) %MON dynstat_wvel_del2            =   7.2646654734550E-05
(PID.TID 0000.0001) %MON dynstat_theta_max            =   1.1578986757707E+04
(PID.TID 0000.0001) %MON dynstat_theta_min            =   1.1578985832338E+04
(PID.TID 0000.0001) %MON dynstat_theta_mean           =   1.1578986295439E+04
(PID.TID 0000.0001) %MON dynstat_theta_sd             =   1.7395975346628E-04
(PID.TID 0000.0001) %MON dynstat_theta_del2           =   8.2827634721026E-05
(PID.TID 0000.0001) %MON dynstat_salt_max             =   0.0000000000000E+00
(PID.TID 0000.0001) %MON dynstat_salt_min             =   0.0000000000000E+00
(PID.TID 0000.0001) %MON dynstat_salt_mean            =   0.0000000000000E+00
(PID.TID 0000.0001) %MON dynstat_salt_sd              =   0.0000000000000E+00
(PID.TID 0000.0001) %MON dynstat_salt_del2            =   0.0000000000000E+00
(PID.TID 0000.0001) %MON extforcing_qnet_max          =   0.0000000000000E+00
(PID.TID 0000.0001) %MON extforcing_qnet_min          =   0.0000000000000E+00
(PID.TID 0000.0001) %MON extforcing_qnet_mean         =   0.0000000000000E+00
(PID.TID 0000.0001) %MON extforcing_qnet_sd           =   0.0000000000000E+00
(PID.TID 0000.0001) %MON extforcing_qnet_del2         =   0.0000000000000E+00
(PID.TID 0000.0001) %MON extforcing_qsw_max           =   0.0000000000000E+00
(PID.TID 0000.0001) %MON extforcing_qsw_min           =   0.0000000000000E+00
(PID.TID 0000.0001) %MON extforcing_qsw_mean          =   0.0000000000000E+00
(PID.TID 0000.0001) %MON extforcing_qsw_sd            =   0.0000000000000E+00
(PID.TID 0000.0001) %MON extforcing_qsw_del2          =   0.0000000000000E+00
(PID.TID 0000.0001) %MON extforcing_empmr_max         =   0.0000000000000E+00
(PID.TID 0000.0001) %MON extforcing_empmr_min         =   0.0000000000000E+00
(PID.TID 0000.0001) %MON extforcing_empmr_mean        =   0.0000000000000E+00
(PID.TID 0000.0001) %MON extforcing_empmr_sd          =   0.0000000000000E+00
(PID.TID 0000.0001) %MON extforcing_empmr_del2        =   0.0000000000000E+00
(PID.TID 0000.0001) %MON advcfl_uvel_max              =   4.3208674248842E-08
(PID.TID 0000.0001) %MON advcfl_vvel_max              =   1.4803721306073E-06
(PID.TID 0000.0001) %MON advcfl_wvel_max              =   8.6495355405589E-06
(PID.TID 0000.0001) %MON advcfl_W_hf_max              =   8.6495355405589E-06
(PID.TID 0000.0001) %MON pe_b_mean                    =   1.4702477195743E-10
(PID.TID 0000.0001) %MON ke_max                       =   2.6572516806017E-07
(PID.TID 0000.0001) %MON ke_mean                      =   1.7843299701290E-08
(PID.TID 0000.0001) %MON ke_vol                       =   3.4820518350516E+19
(PID.TID 0000.0001) %MON vort_r_min                   =  -1.2135759130935E-09
(PID.TID 0000.0001) %MON vort_r_max                   =   9.0740644646608E-10
(PID.TID 0000.0001) %MON vort_a_mean                  =   3.2910091730588E-20
(PID.TID 0000.0001) %MON vort_a_sd                    =   8.2567010674194E-05
(PID.TID 0000.0001) %MON vort_p_mean                  =   3.2993902441960E-20
(PID.TID 0000.0001) %MON vort_p_sd                    =   8.3918501798532E-05
(PID.TID 0000.0001) %MON surfExpan_theta_mean         =  -1.2324996285098E-11
(PID.TID 0000.0001) %MON surfExpan_salt_mean          =   0.0000000000000E+00
(PID.TID 0000.0001) // =======================================================
(PID.TID 0000.0001) // End MONITOR dynamic field statistics
(PID.TID 0000.0001) // =======================================================
 cg2d: Sum(rhs),rhsMax =   4.36769465035070E-05  5.72542511926520E-01
(PID.TID 0000.0001)                    cg2d_init_res =    4.06414917179125E-02
(PID.TID 0000.0001)                       cg2d_iters =   101
(PID.TID 0000.0001)                         cg2d_res =    6.27031155383792E-14
 cg3d: Sum(rhs),rhsMax =   2.94236857101282E-13  3.39519426968322E-02
(PID.TID 0000.0001)                    cg3d_init_res =    3.39291394214709E-01
(PID.TID 0000.0001)                       cg3d_iters =    40
(PID.TID 0000.0001)                         cg3d_res =    4.83162167696914E-04
(PID.TID 0000.0001) // =======================================================
(PID.TID 0000.0001) // Begin MONITOR dynamic field statistics
(PID.TID 0000.0001) // =======================================================
(PID.TID 0000.0001) %MON time_tsnumber                =                     8
(PID.TID 0000.0001) %MON time_secondsf                =   2.4000000000000E+03
(PID.TID 0000.0001) %MON dynstat_eta_max              =   2.3723610799031E-02
(PID.TID 0000.0001) %MON dynstat_eta_min              =  -1.8874896713249E-02
(PID.TID 0000.0001) %MON dynstat_eta_mean             =  -4.8561374160363E-06
(PID.TID 0000.0001) %MON dynstat_eta_sd               =   8.5921984698519E-03
(PID.TID 0000.0001) %MON dynstat_eta_del2             =   4.0963731166570E-03
(PID.TID 0000.0001) %MON dynstat_uvel_max             =   1.1749614052553E-04
(PID.TID 0000.0001) %MON dynstat_uvel_min             =  -1.1525265783316E-04
(PID.TID 0000.0001) %MON dynstat_uvel_mean            =  -5.3031761828076E-08
(PID.TID 0000.0001) %MON dynstat_uvel_sd              =   2.4119440626676E-05
(PID.TID 0000.0001) %MON dynstat_uvel_del2            =   8.2945748586538E-06
(PID.TID 0000.0001) %MON dynstat_vvel_max             =   5.9436539720613E-04
(PID.TID 0000.0001) %MON dynstat_vvel_min             =  -4.7938546226797E-04
(PID.TID 0000.0001) %MON dynstat_vvel_mean            =  -2.1675744293568E-07
(PID.TID 0000.0001) %MON dynstat_vvel_sd              =   1.0483533460188E-04
(PID.TID 0000.0001) %MON dynstat_vvel_del2            =   3.8372993400924E-05
(PID.TID 0000.0001) %MON dynstat_wvel_max             =   6.6551654554657E-04
(PID.TID 0000.0001) %MON dynstat_wvel_min             =  -7.9220408761013E-04
(PID.TID 0000.0001) %MON dynstat_wvel_mean            =  -1.4427006396396E-20
(PID.TID 0000.0001) %MON dynstat_wvel_sd              =   1.7564517861810E-04
(PID.TID 0000.0001) %MON dynstat_wvel_del2            =   7.7059013169443E-05
(PID.TID 0000.0001) %MON dynstat_theta_max            =   1.1578986751607E+04
(PID.TID 0000.0001) %MON dynstat_theta_min            =   1.1578985837561E+04
(PID.TID 0000.0001) %MON dynstat_theta_mean           =   1.1578986295439E+04
(PID.TID 0000.0001) %MON dynstat_theta_sd             =   1.6578119911756E-04
(PID.TID 0000.0001) %MON dynstat_theta_del2           =   7.8300949324422E-05
(PID.TID 0000.0001) %MON dynstat_salt_max             =   0.0000000000000E+00
(PID.TID 0000.0001) %MON dynstat_salt_min             =   0.0000000000000E+00
(PID.TID 0000.0001) %MON dynstat_salt_mean            =   0.0000000000000E+00
(PID.TID 0000.0001) %MON dynstat_salt_sd              =   0.0000000000000E+00
(PID.TID 0000.0001) %MON dynstat_salt_del2            =   0.0000000000000E+00
(PID.TID 0000.0001) %MON extforcing_qnet_max          =   0.0000000000000E+00
(PID.TID 0000.0001) %MON extforcing_qnet_min          =   0.0000000000000E+00
(PID.TID 0000.0001) %MON extforcing_qnet_mean         =   0.0000000000000E+00
(PID.TID 0000.0001) %MON extforcing_qnet_sd           =   0.0000000000000E+00
(PID.TID 0000.0001) %MON extforcing_qnet_del2         =   0.0000000000000E+00
(PID.TID 0000.0001) %MON extforcing_qsw_max           =   0.0000000000000E+00
(PID.TID 0000.0001) %MON extforcing_qsw_min           =   0.0000000000000E+00
(PID.TID 0000.0001) %MON extforcing_qsw_mean          =   0.0000000000000E+00
(PID.TID 0000.0001) %MON extforcing_qsw_sd            =   0.0000000000000E+00
(PID.TID 0000.0001) %MON extforcing_qsw_del2          =   0.0000000000000E+00
(PID.TID 0000.0001) %MON extforcing_empmr_max         =   0.0000000000000E+00
(PID.TID 0000.0001) %MON extforcing_empmr_min         =   0.0000000000000E+00
(PID.TID 0000.0001) %MON extforcing_empmr_mean        =   0.0000000000000E+00
(PID.TID 0000.0001) %MON extforcing_empmr_sd          =   0.0000000000000E+00
(PID.TID 0000.0001) %MON extforcing_empmr_del2        =   0.0000000000000E+00
(PID.TID 0000.0001) %MON advcfl_uvel_max              =   5.4595063586193E-08
(PID.TID 0000.0001) %MON advcfl_vvel_max              =   1.6038286694754E-06
(PID.TID 0000.0001) %MON advcfl_wvel_max              =   9.5064490513216E-06
(PID.TID 0000.0001) %MON advcfl_W_hf_max              =   9.5064490513216E-06
(PID.TID 0000.0001) %MON pe_b_mean                    =   1.4459235236365E-10
(PID.TID 0000.0001) %MON ke_max                       =   3.2263950488142E-07
(PID.TID 0000.0001) %MON ke_mean                      =   2.1159925728930E-08
(PID.TID 0000.0001) %MON ke_vol                       =   3.4820518350516E+19
(PID.TID 0000.0001) %MON vort_r_min                   =  -1.4751210341153E-09
(PID.TID 0000.0001) %MON vort_r_max                   =   1.1112161209595E-09
(PID.TID 0000.0001) %MON vort_a_mean                  =  -2.0942785646738E-20
(PID.TID 0000.0001) %MON vort_a_sd                    =   8.2567010675491E-05
(PID.TID 0000.0001) %MON vort_p_mean                  =  -2.0996119735793E-20
(PID.TID 0000.0001) %MON vort_p_sd                    =   8.3918501873503E-05
(PID.TID 0000.0001) %MON surfExpan_theta_mean         =  -1.6442183778472E-11
(PID.TID 0000.0001) %MON surfExpan_salt_mean          =   0.0000000000000E+00
(PID.TID 0000.0001) // =======================================================
(PID.TID 0000.0001) // End MONITOR dynamic field statistics
(PID.TID 0000.0001) // =======================================================
 cg2d: Sum(rhs),rhsMax =   4.71403169350348E-05  5.65667644778456E-01
(PID.TID 0000.0001)                    cg2d_init_res =    4.05748011870597E-02
(PID.TID 0000.0001)                       cg2d_iters =   101
(PID.TID 0000.0001)                         cg2d_res =    6.33806199297954E-14
 cg3d: Sum(rhs),rhsMax =  -9.84021891747844E-16  3.35949733401085E-02
(PID.TID 0000.0001)                    cg3d_init_res =    3.35300963112315E-01
(PID.TID 0000.0001)                       cg3d_iters =    40
(PID.TID 0000.0001)                         cg3d_res =    4.53798268688840E-04
(PID.TID 0000.0001) // =======================================================
(PID.TID 0000.0001) // Begin MONITOR dynamic field statistics
(PID.TID 0000.0001) // =======================================================
(PID.TID 0000.0001) %MON time_tsnumber                =                     9
(PID.TID 0000.0001) %MON time_secondsf                =   2.7000000000000E+03
(PID.TID 0000.0001) %MON dynstat_eta_max              =   2.3375289950706E-02
(PID.TID 0000.0001) %MON dynstat_eta_min              =  -1.8717010312694E-02
(PID.TID 0000.0001) %MON dynstat_eta_mean             =  -5.1782712536838E-06
(PID.TID 0000.0001) %MON dynstat_eta_sd               =   8.5284750530024E-03
(PID.TID 0000.0001) %MON dynstat_eta_del2             =   4.0542616928540E-03
(PID.TID 0000.0001) %MON dynstat_uvel_max             =   1.4247836490099E-04
(PID.TID 0000.0001) %MON dynstat_uvel_min             =  -1.3897930368940E-04
(PID.TID 0000.0001) %MON dynstat_uvel_mean            =  -4.4573764852168E-08
(PID.TID 0000.0001) %MON dynstat_uvel_sd              =   2.8961926430780E-05
(PID.TID 0000.0001) %MON dynstat_uvel_del2            =   9.5592317495449E-06
(PID.TID 0000.0001) %MON dynstat_vvel_max             =   6.3559705931699E-04
(PID.TID 0000.0001) %MON dynstat_vvel_min             =  -5.1546193963848E-04
(PID.TID 0000.0001) %MON dynstat_vvel_mean            =  -1.5614051085278E-07
(PID.TID 0000.0001) %MON dynstat_vvel_sd              =   1.1198485154421E-04
(PID.TID 0000.0001) %MON dynstat_vvel_del2            =   3.9545365803321E-05
(PID.TID 0000.0001) %MON dynstat_wvel_max             =   7.1929235225400E-04
(PID.TID 0000.0001) %MON dynstat_wvel_min             =  -8.5813441505359E-04
(PID.TID 0000.0001) %MON dynstat_wvel_mean            =  -1.9039148792125E-20
(PID.TID 0000.0001) %MON dynstat_wvel_sd              =   1.8883043843757E-04
(PID.TID 0000.0001) %MON dynstat_wvel_del2            =   8.0705099192652E-05
(PID.TID 0000.0001) %MON dynstat_theta_max            =   1.1578986745271E+04
(PID.TID 0000.0001) %MON dynstat_theta_min            =   1.1578985842958E+04
(PID.TID 0000.0001) %MON dynstat_theta_mean           =   1.1578986295439E+04
(PID.TID 0000.0001) %MON dynstat_theta_sd             =   1.5867495901615E-04
(PID.TID 0000.0001) %MON dynstat_theta_del2           =   7.4328633030158E-05
(PID.TID 0000.0001) %MON dynstat_salt_max             =   0.0000000000000E+00
(PID.TID 0000.0001) %MON dynstat_salt_min             =   0.0000000000000E+00
(PID.TID 0000.0001) %MON dynstat_salt_mean            =   0.0000000000000E+00
(PID.TID 0000.0001) %MON dynstat_salt_sd              =   0.0000000000000E+00
(PID.TID 0000.0001) %MON dynstat_salt_del2            =   0.0000000000000E+00
(PID.TID 0000.0001) %MON extforcing_qnet_max          =   0.0000000000000E+00
(PID.TID 0000.0001) %MON extforcing_qnet_min          =   0.0000000000000E+00
(PID.TID 0000.0001) %MON extforcing_qnet_mean         =   0.0000000000000E+00
(PID.TID 0000.0001) %MON extforcing_qnet_sd           =   0.0000000000000E+00
(PID.TID 0000.0001) %MON extforcing_qnet_del2         =   0.0000000000000E+00
(PID.TID 0000.0001) %MON extforcing_qsw_max           =   0.0000000000000E+00
(PID.TID 0000.0001) %MON extforcing_qsw_min           =   0.0000000000000E+00
(PID.TID 0000.0001) %MON extforcing_qsw_mean          =   0.0000000000000E+00
(PID.TID 0000.0001) %MON extforcing_qsw_sd            =   0.0000000000000E+00
(PID.TID 0000.0001) %MON extforcing_qsw_del2          =   0.0000000000000E+00
(PID.TID 0000.0001) %MON extforcing_empmr_max         =   0.0000000000000E+00
(PID.TID 0000.0001) %MON extforcing_empmr_min         =   0.0000000000000E+00
(PID.TID 0000.0001) %MON extforcing_empmr_mean        =   0.0000000000000E+00
(PID.TID 0000.0001) %MON extforcing_empmr_sd          =   0.0000000000000E+00
(PID.TID 0000.0001) %MON extforcing_empmr_del2        =   0.0000000000000E+00
(PID.TID 0000.0001) %MON advcfl_uvel_max              =   6.6861324645202E-08
(PID.TID 0000.0001) %MON advcfl_vvel_max              =   1.7150877065835E-06
(PID.TID 0000.0001) %MON advcfl_wvel_max              =   1.0297612980643E-05
(PID.TID 0000.0001) %MON advcfl_W_hf_max              =   1.0297612980643E-05
(PID.TID 0000.0001) %MON pe_b_mean                    =   1.4245559505651E-10
(PID.TID 0000.0001) %MON ke_max                       =   3.8055809306008E-07
(PID.TID 0000.0001) %MON ke_mean                      =   2.4458439719556E-08
(PID.TID 0000.0001) %MON ke_vol                       =   3.4820518350516E+19
(PID.TID 0000.0001) %MON vort_r_min                   =  -1.7395507151408E-09
(PID.TID 0000.0001) %MON vort_r_max                   =   1.3210773651646E-09
(PID.TID 0000.0001) %MON vort_a_mean                  =  -3.8893744772513E-20
(PID.TID 0000.0001) %MON vort_a_sd                    =   8.2567010677154E-05
(PID.TID 0000.0001) %MON vort_p_mean                  =  -3.8992793795044E-20
(PID.TID 0000.0001) %MON vort_p_sd                    =   8.3918501955110E-05
(PID.TID 0000.0001) %MON surfExpan_theta_mean         =  -1.7374349915384E-11
(PID.TID 0000.0001) %MON surfExpan_salt_mean          =   0.0000000000000E+00
(PID.TID 0000.0001) // =======================================================
(PID.TID 0000.0001) // End MONITOR dynamic field statistics
(PID.TID 0000.0001) // =======================================================
 cg2d: Sum(rhs),rhsMax =   4.72043400913114E-05  5.58898138152742E-01
(PID.TID 0000.0001)                    cg2d_init_res =    4.05102423250357E-02
(PID.TID 0000.0001)                       cg2d_iters =   101
(PID.TID 0000.0001)                         cg2d_res =    6.40147499565707E-14
 cg3d: Sum(rhs),rhsMax =   1.06632584706556E-13  3.32257931164202E-02
(PID.TID 0000.0001)                    cg3d_init_res =    3.30782657977180E-01
(PID.TID 0000.0001)                       cg3d_iters =    40
(PID.TID 0000.0001)                         cg3d_res =    4.05291724063749E-04
(PID.TID 0000.0001) // =======================================================
(PID.TID 0000.0001) // Begin MONITOR dynamic field statistics
(PID.TID 0000.0001) // =======================================================
(PID.TID 0000.0001) %MON time_tsnumber                =                    10
(PID.TID 0000.0001) %MON time_secondsf                =   3.0000000000000E+03
(PID.TID 0000.0001) %MON dynstat_eta_max              =   2.3120512197622E-02
(PID.TID 0000.0001) %MON dynstat_eta_min              =  -1.8612704874311E-02
(PID.TID 0000.0001) %MON dynstat_eta_mean             =  -5.1232500536189E-06
(PID.TID 0000.0001) %MON dynstat_eta_sd               =   8.4728610971543E-03
(PID.TID 0000.0001) %MON dynstat_eta_del2             =   4.0126492436384E-03
(PID.TID 0000.0001) %MON dynstat_uvel_max             =   1.6867399675045E-04
(PID.TID 0000.0001) %MON dynstat_uvel_min             =  -1.6368453471533E-04
(PID.TID 0000.0001) %MON dynstat_uvel_mean            =  -3.5759973488017E-08
(PID.TID 0000.0001) %MON dynstat_uvel_sd              =   3.4017794679776E-05
(PID.TID 0000.0001) %MON dynstat_uvel_del2            =   1.0786656118448E-05
(PID.TID 0000.0001) %MON dynstat_vvel_max             =   6.7284601103757E-04
(PID.TID 0000.0001) %MON dynstat_vvel_min             =  -5.4860488277876E-04
(PID.TID 0000.0001) %MON dynstat_vvel_mean            =  -9.8129582545501E-08
(PID.TID 0000.0001) %MON dynstat_vvel_sd              =   1.1854947918068E-04
(PID.TID 0000.0001) %MON dynstat_vvel_del2            =   4.0435967489647E-05
(PID.TID 0000.0001) %MON dynstat_wvel_max             =   7.6834493904290E-04
(PID.TID 0000.0001) %MON dynstat_wvel_min             =  -9.1939135350713E-04
(PID.TID 0000.0001) %MON dynstat_wvel_mean            =   2.2245150213546E-20
(PID.TID 0000.0001) %MON dynstat_wvel_sd              =   2.0089735344481E-04
(PID.TID 0000.0001) %MON dynstat_wvel_del2            =   8.3704349605588E-05
(PID.TID 0000.0001) %MON dynstat_theta_max            =   1.1578986738755E+04
(PID.TID 0000.0001) %MON dynstat_theta_min            =   1.1578985848498E+04
(PID.TID 0000.0001) %MON dynstat_theta_mean           =   1.1578986295439E+04
(PID.TID 0000.0001) %MON dynstat_theta_sd             =   1.5245175422038E-04
(PID.TID 0000.0001) %MON dynstat_theta_del2           =   7.0826053245281E-05
(PID.TID 0000.0001) %MON dynstat_salt_max             =   0.0000000000000E+00
(PID.TID 0000.0001) %MON dynstat_salt_min             =   0.0000000000000E+00
(PID.TID 0000.0001) %MON dynstat_salt_mean            =   0.0000000000000E+00
(PID.TID 0000.0001) %MON dynstat_salt_sd              =   0.0000000000000E+00
(PID.TID 0000.0001) %MON dynstat_salt_del2            =   0.0000000000000E+00
(PID.TID 0000.0001) %MON extforcing_qnet_max          =   0.0000000000000E+00
(PID.TID 0000.0001) %MON extforcing_qnet_min          =   0.0000000000000E+00
(PID.TID 0000.0001) %MON extforcing_qnet_mean         =   0.0000000000000E+00
(PID.TID 0000.0001) %MON extforcing_qnet_sd           =   0.0000000000000E+00
(PID.TID 0000.0001) %MON extforcing_qnet_del2         =   0.0000000000000E+00
(PID.TID 0000.0001) %MON extforcing_qsw_max           =   0.0000000000000E+00
(PID.TID 0000.0001) %MON extforcing_qsw_min           =   0.0000000000000E+00
(PID.TID 0000.0001) %MON extforcing_qsw_mean          =   0.0000000000000E+00
(PID.TID 0000.0001) %MON extforcing_qsw_sd            =   0.0000000000000E+00
(PID.TID 0000.0001) %MON extforcing_qsw_del2          =   0.0000000000000E+00
(PID.TID 0000.0001) %MON extforcing_empmr_max         =   0.0000000000000E+00
(PID.TID 0000.0001) %MON extforcing_empmr_min         =   0.0000000000000E+00
(PID.TID 0000.0001) %MON extforcing_empmr_mean        =   0.0000000000000E+00
(PID.TID 0000.0001) %MON extforcing_empmr_sd          =   0.0000000000000E+00
(PID.TID 0000.0001) %MON extforcing_empmr_del2        =   0.0000000000000E+00
(PID.TID 0000.0001) %MON advcfl_uvel_max              =   7.9916212863967E-08
(PID.TID 0000.0001) %MON advcfl_vvel_max              =   1.8155998443327E-06
(PID.TID 0000.0001) %MON advcfl_wvel_max              =   1.1032696242086E-05
(PID.TID 0000.0001) %MON advcfl_W_hf_max              =   1.1032696242086E-05
(PID.TID 0000.0001) %MON pe_b_mean                    =   1.4060375409307E-10
(PID.TID 0000.0001) %MON ke_max                       =   4.3888598863835E-07
(PID.TID 0000.0001) %MON ke_mean                      =   2.7717976030332E-08
(PID.TID 0000.0001) %MON ke_vol                       =   3.4820518350516E+19
(PID.TID 0000.0001) %MON vort_r_min                   =  -2.0035567923468E-09
(PID.TID 0000.0001) %MON vort_r_max                   =   1.5347126643989E-09
(PID.TID 0000.0001) %MON vort_a_mean                  =   4.7869224335401E-20
(PID.TID 0000.0001) %MON vort_a_sd                    =   8.2567010678685E-05
(PID.TID 0000.0001) %MON vort_p_mean                  =   4.7991130824669E-20
(PID.TID 0000.0001) %MON vort_p_sd                    =   8.3918502042473E-05
(PID.TID 0000.0001) %MON surfExpan_theta_mean         =  -1.5343491532008E-11
(PID.TID 0000.0001) %MON surfExpan_salt_mean          =   0.0000000000000E+00
(PID.TID 0000.0001) // =======================================================
(PID.TID 0000.0001) // End MONITOR dynamic field statistics
(PID.TID 0000.0001) // =======================================================
 cg2d: Sum(rhs),rhsMax =   4.52266390825740E-05  5.52230177826931E-01
(PID.TID 0000.0001)                    cg2d_init_res =    4.04467876587928E-02
(PID.TID 0000.0001)                       cg2d_iters =   101
(PID.TID 0000.0001)                         cg2d_res =    6.46878364314121E-14
 cg3d: Sum(rhs),rhsMax =   1.84872516600931E-13  3.28542757693417E-02
(PID.TID 0000.0001)                    cg3d_init_res =    3.27143917267744E-01
(PID.TID 0000.0001)                       cg3d_iters =    40
(PID.TID 0000.0001)                         cg3d_res =    3.08163730624700E-04
(PID.TID 0000.0001) // =======================================================
(PID.TID 0000.0001) // Begin MONITOR dynamic field statistics
(PID.TID 0000.0001) // =======================================================
(PID.TID 0000.0001) %MON time_tsnumber                =                    11
(PID.TID 0000.0001) %MON time_secondsf                =   3.3000000000000E+03
(PID.TID 0000.0001) %MON dynstat_eta_max              =   2.2982919353983E-02
(PID.TID 0000.0001) %MON dynstat_eta_min              =  -1.8548655447314E-02
(PID.TID 0000.0001) %MON dynstat_eta_mean             =  -4.8500410117766E-06
(PID.TID 0000.0001) %MON dynstat_eta_sd               =   8.4232349768116E-03
(PID.TID 0000.0001) %MON dynstat_eta_del2             =   3.9715308383292E-03
(PID.TID 0000.0001) %MON dynstat_uvel_max             =   1.9588438531950E-04
(PID.TID 0000.0001) %MON dynstat_uvel_min             =  -1.8917395306782E-04
(PID.TID 0000.0001) %MON dynstat_uvel_mean            =  -2.8816234278885E-08
(PID.TID 0000.0001) %MON dynstat_uvel_sd              =   3.9260136580283E-05
(PID.TID 0000.0001) %MON dynstat_uvel_del2            =   1.1969516376886E-05
(PID.TID 0000.0001) %MON dynstat_vvel_max             =   7.0657699876641E-04
(PID.TID 0000.0001) %MON dynstat_vvel_min             =  -5.7923090766708E-04
(PID.TID 0000.0001) %MON dynstat_vvel_mean            =  -5.4044737715628E-08
(PID.TID 0000.0001) %MON dynstat_vvel_sd              =   1.2460888069461E-04
(PID.TID 0000.0001) %MON dynstat_vvel_del2            =   4.1096816761780E-05
(PID.TID 0000.0001) %MON dynstat_wvel_max             =   8.1302425163232E-04
(PID.TID 0000.0001) %MON dynstat_wvel_min             =  -9.7593671200139E-04
(PID.TID 0000.0001) %MON dynstat_wvel_mean            =   1.8448569582916E-20
(PID.TID 0000.0001) %MON dynstat_wvel_sd              =   2.1196814096887E-04
(PID.TID 0000.0001) %MON dynstat_wvel_del2            =   8.6153309659104E-05
(PID.TID 0000.0001) %MON dynstat_theta_max            =   1.1578986732108E+04
(PID.TID 0000.0001) %MON dynstat_theta_min            =   1.1578985854154E+04
(PID.TID 0000.0001) %MON dynstat_theta_mean           =   1.1578986295440E+04
(PID.TID 0000.0001) %MON dynstat_theta_sd             =   1.4695825468657E-04
(PID.TID 0000.0001) %MON dynstat_theta_del2           =   6.7720780882245E-05
(PID.TID 0000.0001) %MON dynstat_salt_max             =   0.0000000000000E+00
(PID.TID 0000.0001) %MON dynstat_salt_min             =   0.0000000000000E+00
(PID.TID 0000.0001) %MON dynstat_salt_mean            =   0.0000000000000E+00
(PID.TID 0000.0001) %MON dynstat_salt_sd              =   0.0000000000000E+00
(PID.TID 0000.0001) %MON dynstat_salt_del2            =   0.0000000000000E+00
(PID.TID 0000.0001) %MON extforcing_qnet_max          =   0.0000000000000E+00
(PID.TID 0000.0001) %MON extforcing_qnet_min          =   0.0000000000000E+00
(PID.TID 0000.0001) %MON extforcing_qnet_mean         =   0.0000000000000E+00
(PID.TID 0000.0001) %MON extforcing_qnet_sd           =   0.0000000000000E+00
(PID.TID 0000.0001) %MON extforcing_qnet_del2         =   0.0000000000000E+00
(PID.TID 0000.0001) %MON extforcing_qsw_max           =   0.0000000000000E+00
(PID.TID 0000.0001) %MON extforcing_qsw_min           =   0.0000000000000E+00
(PID.TID 0000.0001) %MON extforcing_qsw_mean          =   0.0000000000000E+00
(PID.TID 0000.0001) %MON extforcing_qsw_sd            =   0.0000000000000E+00
(PID.TID 0000.0001) %MON extforcing_qsw_del2          =   0.0000000000000E+00
(PID.TID 0000.0001) %MON extforcing_empmr_max         =   0.0000000000000E+00
(PID.TID 0000.0001) %MON extforcing_empmr_min         =   0.0000000000000E+00
(PID.TID 0000.0001) %MON extforcing_empmr_mean        =   0.0000000000000E+00
(PID.TID 0000.0001) %MON extforcing_empmr_sd          =   0.0000000000000E+00
(PID.TID 0000.0001) %MON extforcing_empmr_del2        =   0.0000000000000E+00
(PID.TID 0000.0001) %MON advcfl_uvel_max              =   9.3674518509832E-08
(PID.TID 0000.0001) %MON advcfl_vvel_max              =   1.9066191489954E-06
(PID.TID 0000.0001) %MON advcfl_wvel_max              =   1.1711240544017E-05
(PID.TID 0000.0001) %MON advcfl_W_hf_max              =   1.1711240544017E-05
(PID.TID 0000.0001) %MON pe_b_mean                    =   1.3896152141308E-10
(PID.TID 0000.0001) %MON ke_max                       =   4.9715654575541E-07
(PID.TID 0000.0001) %MON ke_mean                      =   3.0924576018462E-08
(PID.TID 0000.0001) %MON ke_vol                       =   3.4820518350516E+19
(PID.TID 0000.0001) %MON vort_r_min                   =  -2.2644849325193E-09
(PID.TID 0000.0001) %MON vort_r_max                   =   1.7501943607385E-09
(PID.TID 0000.0001) %MON vort_a_mean                  =  -5.9836530419251E-21
(PID.TID 0000.0001) %MON vort_a_sd                    =   8.2567010679674E-05
(PID.TID 0000.0001) %MON vort_p_mean                  =  -5.9988913530836E-21
(PID.TID 0000.0001) %MON vort_p_sd                    =   8.3918502134889E-05
(PID.TID 0000.0001) %MON surfExpan_theta_mean         =  -1.1894810260115E-11
(PID.TID 0000.0001) %MON surfExpan_salt_mean          =   0.0000000000000E+00
(PID.TID 0000.0001) // =======================================================
(PID.TID 0000.0001) // End MONITOR dynamic field statistics
(PID.TID 0000.0001) // =======================================================
 cg2d: Sum(rhs),rhsMax =   4.26678923584056E-05  5.45660022680915E-01
(PID.TID 0000.0001)                    cg2d_init_res =    4.03848867304137E-02
(PID.TID 0000.0001)                       cg2d_iters =   101
(PID.TID 0000.0001)                         cg2d_res =    6.54152964578037E-14
 cg3d: Sum(rhs),rhsMax =  -3.59625523804752E-14  3.24871393886190E-02
(PID.TID 0000.0001)                    cg3d_init_res =    3.23536257273681E-01
(PID.TID 0000.0001)                       cg3d_iters =    40
(PID.TID 0000.0001)                         cg3d_res =    2.12768583288647E-04
(PID.TID 0000.0001) // =======================================================
(PID.TID 0000.0001) // Begin MONITOR dynamic field statistics
(PID.TID 0000.0001) // =======================================================
(PID.TID 0000.0001) %MON time_tsnumber                =                    12
(PID.TID 0000.0001) %MON time_secondsf                =   3.6000000000000E+03
(PID.TID 0000.0001) %MON dynstat_eta_max              =   2.2873245822945E-02
(PID.TID 0000.0001) %MON dynstat_eta_min              =  -1.8499491511914E-02
(PID.TID 0000.0001) %MON dynstat_eta_mean             =  -4.5212059168372E-06
(PID.TID 0000.0001) %MON dynstat_eta_sd               =   8.3768122285730E-03
(PID.TID 0000.0001) %MON dynstat_eta_del2             =   3.9309006509185E-03
(PID.TID 0000.0001) %MON dynstat_uvel_max             =   2.2393350825388E-04
(PID.TID 0000.0001) %MON dynstat_uvel_min             =  -2.1527688379038E-04
(PID.TID 0000.0001) %MON dynstat_uvel_mean            =  -2.5245233371836E-08
(PID.TID 0000.0001) %MON dynstat_uvel_sd              =   4.4666232485922E-05
(PID.TID 0000.0001) %MON dynstat_uvel_del2            =   1.3102959358242E-05
(PID.TID 0000.0001) %MON dynstat_vvel_max             =   7.3720076960664E-04
(PID.TID 0000.0001) %MON dynstat_vvel_min             =  -6.0764961178981E-04
(PID.TID 0000.0001) %MON dynstat_vvel_mean            =  -3.0648583771636E-08
(PID.TID 0000.0001) %MON dynstat_vvel_sd              =   1.3022558629730E-04
(PID.TID 0000.0001) %MON dynstat_vvel_del2            =   4.1567463804776E-05
(PID.TID 0000.0001) %MON dynstat_wvel_max             =   8.5366322706793E-04
(PID.TID 0000.0001) %MON dynstat_wvel_min             =  -1.0281198498955E-03
(PID.TID 0000.0001) %MON dynstat_wvel_mean            =   5.6245638972304E-22
(PID.TID 0000.0001) %MON dynstat_wvel_sd              =   2.2214666673213E-04
(PID.TID 0000.0001) %MON dynstat_wvel_del2            =   8.8133809771890E-05
(PID.TID 0000.0001) %MON dynstat_theta_max            =   1.1578986725372E+04
(PID.TID 0000.0001) %MON dynstat_theta_min            =   1.1578985859900E+04
(PID.TID 0000.0001) %MON dynstat_theta_mean           =   1.1578986295439E+04
(PID.TID 0000.0001) %MON dynstat_theta_sd             =   1.4207049004572E-04
(PID.TID 0000.0001) %MON dynstat_theta_del2           =   6.4940813486293E-05
(PID.TID 0000.0001) %MON dynstat_salt_max             =   0.0000000000000E+00
(PID.TID 0000.0001) %MON dynstat_salt_min             =   0.0000000000000E+00
(PID.TID 0000.0001) %MON dynstat_salt_mean            =   0.0000000000000E+00
(PID.TID 0000.0001) %MON dynstat_salt_sd              =   0.0000000000000E+00
(PID.TID 0000.0001) %MON dynstat_salt_del2            =   0.0000000000000E+00
(PID.TID 0000.0001) %MON extforcing_qnet_max          =   0.0000000000000E+00
(PID.TID 0000.0001) %MON extforcing_qnet_min          =   0.0000000000000E+00
(PID.TID 0000.0001) %MON extforcing_qnet_mean         =   0.0000000000000E+00
(PID.TID 0000.0001) %MON extforcing_qnet_sd           =   0.0000000000000E+00
(PID.TID 0000.0001) %MON extforcing_qnet_del2         =   0.0000000000000E+00
(PID.TID 0000.0001) %MON extforcing_qsw_max           =   0.0000000000000E+00
(PID.TID 0000.0001) %MON extforcing_qsw_min           =   0.0000000000000E+00
(PID.TID 0000.0001) %MON extforcing_qsw_mean          =   0.0000000000000E+00
(PID.TID 0000.0001) %MON extforcing_qsw_sd            =   0.0000000000000E+00
(PID.TID 0000.0001) %MON extforcing_qsw_del2          =   0.0000000000000E+00
(PID.TID 0000.0001) %MON extforcing_empmr_max         =   0.0000000000000E+00
(PID.TID 0000.0001) %MON extforcing_empmr_min         =   0.0000000000000E+00
(PID.TID 0000.0001) %MON extforcing_empmr_mean        =   0.0000000000000E+00
(PID.TID 0000.0001) %MON extforcing_empmr_sd          =   0.0000000000000E+00
(PID.TID 0000.0001) %MON extforcing_empmr_del2        =   0.0000000000000E+00
(PID.TID 0000.0001) %MON advcfl_uvel_max              =   1.0806190235650E-07
(PID.TID 0000.0001) %MON advcfl_vvel_max              =   1.9892539757735E-06
(PID.TID 0000.0001) %MON advcfl_wvel_max              =   1.2337438198746E-05
(PID.TID 0000.0001) %MON advcfl_W_hf_max              =   1.2337438198746E-05
(PID.TID 0000.0001) %MON pe_b_mean                    =   1.3743402693311E-10
(PID.TID 0000.0001) %MON ke_max                       =   5.5498184024110E-07
(PID.TID 0000.0001) %MON ke_mean                      =   3.4069126248379E-08
(PID.TID 0000.0001) %MON ke_vol                       =   3.4820518350516E+19
(PID.TID 0000.0001) %MON vort_r_min                   =  -2.5503491039948E-09
(PID.TID 0000.0001) %MON vort_r_max                   =   1.9659052750678E-09
(PID.TID 0000.0001) %MON vort_a_mean                  =  -8.0779316065989E-20
(PID.TID 0000.0001) %MON vort_a_sd                    =   8.2567010679897E-05
(PID.TID 0000.0001) %MON vort_p_mean                  =  -8.0985033266629E-20
(PID.TID 0000.0001) %MON vort_p_sd                    =   8.3918502231877E-05
(PID.TID 0000.0001) %MON surfExpan_theta_mean         =  -8.5195302314360E-12
(PID.TID 0000.0001) %MON surfExpan_salt_mean          =   0.0000000000000E+00
(PID.TID 0000.0001) // =======================================================
(PID.TID 0000.0001) // End MONITOR dynamic field statistics
(PID.TID 0000.0001) // =======================================================
 Compute Stats, Diag. #     23  ETAN      vol(   0 ): 8.342E+13  Parms: SM      M1      
 Compute Stats, Diag. #     30  UVEL      vol(   0 ): 2.503E+20  Parms: UU      MR      
 Compute Stats, Diag. #     31  VVEL      vol(   0 ): 2.498E+20  Parms: VV      MR      
 Compute Stats, Diag. #     32  WVEL      vol(   0 ): 2.492E+20  Parms: WM      LR      
 Compute Stats, Diag. #     26  THETA     vol(   0 ): 2.503E+20  Parms: SM      MR      
 cg2d: Sum(rhs),rhsMax =   4.03773499669802E-05  5.39184567178019E-01
(PID.TID 0000.0001)                    cg2d_init_res =    4.03244571586043E-02
(PID.TID 0000.0001)                       cg2d_iters =   101
(PID.TID 0000.0001)                         cg2d_res =    6.61559235663348E-14
 cg3d: Sum(rhs),rhsMax =  -1.34655958258789E-13  3.21274313982443E-02
(PID.TID 0000.0001)                    cg3d_init_res =    3.20202422636868E-01
(PID.TID 0000.0001)                       cg3d_iters =    40
(PID.TID 0000.0001)                         cg3d_res =    1.62042361927008E-04
(PID.TID 0000.0001) // =======================================================
(PID.TID 0000.0001) // Begin MONITOR dynamic field statistics
(PID.TID 0000.0001) // =======================================================
(PID.TID 0000.0001) %MON time_tsnumber                =                    13
(PID.TID 0000.0001) %MON time_secondsf                =   3.9000000000000E+03
(PID.TID 0000.0001) %MON dynstat_eta_max              =   2.2780954908941E-02
(PID.TID 0000.0001) %MON dynstat_eta_min              =  -1.8442325748917E-02
(PID.TID 0000.0001) %MON dynstat_eta_mean             =  -4.2277200825059E-06
(PID.TID 0000.0001) %MON dynstat_eta_sd               =   8.3315236719797E-03
(PID.TID 0000.0001) %MON dynstat_eta_del2             =   3.8907516849065E-03
(PID.TID 0000.0001) %MON dynstat_uvel_max             =   2.5266293010071E-04
(PID.TID 0000.0001) %MON dynstat_uvel_min             =  -2.4184420365907E-04
(PID.TID 0000.0001) %MON dynstat_uvel_mean            =  -2.5216468896776E-08
(PID.TID 0000.0001) %MON dynstat_uvel_sd              =   5.0216621193713E-05
(PID.TID 0000.0001) %MON dynstat_uvel_del2            =   1.4185442022832E-05
(PID.TID 0000.0001) %MON dynstat_vvel_max             =   7.6509037847436E-04
(PID.TID 0000.0001) %MON dynstat_vvel_min             =  -6.3408925973734E-04
(PID.TID 0000.0001) %MON dynstat_vvel_mean            =  -2.9087137452225E-08
(PID.TID 0000.0001) %MON dynstat_vvel_sd              =   1.3544934726424E-04
(PID.TID 0000.0001) %MON dynstat_vvel_del2            =   4.1884205806330E-05
(PID.TID 0000.0001) %MON dynstat_wvel_max             =   8.9057297197600E-04
(PID.TID 0000.0001) %MON dynstat_wvel_min             =  -1.0762348379731E-03
(PID.TID 0000.0001) %MON dynstat_wvel_mean            =   5.0058618685351E-21
(PID.TID 0000.0001) %MON dynstat_wvel_sd              =   2.3152159515170E-04
(PID.TID 0000.0001) %MON dynstat_wvel_del2            =   8.9716275110493E-05
(PID.TID 0000.0001) %MON dynstat_theta_max            =   1.1578986718582E+04
(PID.TID 0000.0001) %MON dynstat_theta_min            =   1.1578985865712E+04
(PID.TID 0000.0001) %MON dynstat_theta_mean           =   1.1578986295440E+04
(PID.TID 0000.0001) %MON dynstat_theta_sd             =   1.3768828659320E-04
(PID.TID 0000.0001) %MON dynstat_theta_del2           =   6.2438764006831E-05
(PID.TID 0000.0001) %MON dynstat_salt_max             =   0.0000000000000E+00
(PID.TID 0000.0001) %MON dynstat_salt_min             =   0.0000000000000E+00
(PID.TID 0000.0001) %MON dynstat_salt_mean            =   0.0000000000000E+00
(PID.TID 0000.0001) %MON dynstat_salt_sd              =   0.0000000000000E+00
(PID.TID 0000.0001) %MON dynstat_salt_del2            =   0.0000000000000E+00
(PID.TID 0000.0001) %MON extforcing_qnet_max          =   0.0000000000000E+00
(PID.TID 0000.0001) %MON extforcing_qnet_min          =   0.0000000000000E+00
(PID.TID 0000.0001) %MON extforcing_qnet_mean         =   0.0000000000000E+00
(PID.TID 0000.0001) %MON extforcing_qnet_sd           =   0.0000000000000E+00
(PID.TID 0000.0001) %MON extforcing_qnet_del2         =   0.0000000000000E+00
(PID.TID 0000.0001) %MON extforcing_qsw_max           =   0.0000000000000E+00
(PID.TID 0000.0001) %MON extforcing_qsw_min           =   0.0000000000000E+00
(PID.TID 0000.0001) %MON extforcing_qsw_mean          =   0.0000000000000E+00
(PID.TID 0000.0001) %MON extforcing_qsw_sd            =   0.0000000000000E+00
(PID.TID 0000.0001) %MON extforcing_qsw_del2          =   0.0000000000000E+00
(PID.TID 0000.0001) %MON extforcing_empmr_max         =   0.0000000000000E+00
(PID.TID 0000.0001) %MON extforcing_empmr_min         =   0.0000000000000E+00
(PID.TID 0000.0001) %MON extforcing_empmr_mean        =   0.0000000000000E+00
(PID.TID 0000.0001) %MON extforcing_empmr_sd          =   0.0000000000000E+00
(PID.TID 0000.0001) %MON extforcing_empmr_del2        =   0.0000000000000E+00
(PID.TID 0000.0001) %MON advcfl_uvel_max              =   1.2301463125162E-07
(PID.TID 0000.0001) %MON advcfl_vvel_max              =   2.0645109717103E-06
(PID.TID 0000.0001) %MON advcfl_wvel_max              =   1.2914818055677E-05
(PID.TID 0000.0001) %MON advcfl_W_hf_max              =   1.2914818055677E-05
(PID.TID 0000.0001) %MON pe_b_mean                    =   1.3595198758297E-10
(PID.TID 0000.0001) %MON ke_max                       =   6.1203625736241E-07
(PID.TID 0000.0001) %MON ke_mean                      =   3.7145879453657E-08
(PID.TID 0000.0001) %MON ke_vol                       =   3.4820518350516E+19
(PID.TID 0000.0001) %MON vort_r_min                   =  -2.8507827716935E-09
(PID.TID 0000.0001) %MON vort_r_max                   =   2.1804771747533E-09
(PID.TID 0000.0001) %MON vort_a_mean                  =  -2.3934612167700E-20
(PID.TID 0000.0001) %MON vort_a_sd                    =   8.2567010679385E-05
(PID.TID 0000.0001) %MON vort_p_mean                  =  -2.3995565412335E-20
(PID.TID 0000.0001) %MON vort_p_sd                    =   8.3918502333127E-05
(PID.TID 0000.0001) %MON surfExpan_theta_mean         =  -6.0919224722465E-12
(PID.TID 0000.0001) %MON surfExpan_salt_mean          =   0.0000000000000E+00
(PID.TID 0000.0001) // =======================================================
(PID.TID 0000.0001) // End MONITOR dynamic field statistics
(PID.TID 0000.0001) // =======================================================
 cg2d: Sum(rhs),rhsMax =   3.91564290251611E-05  5.32801429211419E-01
(PID.TID 0000.0001)                    cg2d_init_res =    4.02656415614350E-02
(PID.TID 0000.0001)                       cg2d_iters =   101
(PID.TID 0000.0001)                         cg2d_res =    6.69217312941654E-14
 cg3d: Sum(rhs),rhsMax =   8.78446620999895E-14  3.17757567118386E-02
(PID.TID 0000.0001)                    cg3d_init_res =    3.16956063448677E-01
(PID.TID 0000.0001)                       cg3d_iters =    40
(PID.TID 0000.0001)                         cg3d_res =    1.96362468571731E-04
(PID.TID 0000.0001) // =======================================================
(PID.TID 0000.0001) // Begin MONITOR dynamic field statistics
(PID.TID 0000.0001) // =======================================================
(PID.TID 0000.0001) %MON time_tsnumber                =                    14
(PID.TID 0000.0001) %MON time_secondsf                =   4.2000000000000E+03
(PID.TID 0000.0001) %MON dynstat_eta_max              =   2.2695467744947E-02
(PID.TID 0000.0001) %MON dynstat_eta_min              =  -1.8366183793538E-02
(PID.TID 0000.0001) %MON dynstat_eta_mean             =  -4.0513467841921E-06
(PID.TID 0000.0001) %MON dynstat_eta_sd               =   8.2863641449358E-03
(PID.TID 0000.0001) %MON dynstat_eta_del2             =   3.8510766401075E-03
(PID.TID 0000.0001) %MON dynstat_uvel_max             =   2.8209666720195E-04
(PID.TID 0000.0001) %MON dynstat_uvel_min             =  -2.6874582468211E-04
(PID.TID 0000.0001) %MON dynstat_uvel_mean            =  -2.7864697056396E-08
(PID.TID 0000.0001) %MON dynstat_uvel_sd              =   5.5894389556624E-05
(PID.TID 0000.0001) %MON dynstat_uvel_del2            =   1.5216186748596E-05
(PID.TID 0000.0001) %MON dynstat_vvel_max             =   7.9057954486645E-04
(PID.TID 0000.0001) %MON dynstat_vvel_min             =  -6.5872636675063E-04
(PID.TID 0000.0001) %MON dynstat_vvel_mean            =  -4.5621428767761E-08
(PID.TID 0000.0001) %MON dynstat_vvel_sd              =   1.4032041341628E-04
(PID.TID 0000.0001) %MON dynstat_vvel_del2            =   4.2073976404051E-05
(PID.TID 0000.0001) %MON dynstat_wvel_max             =   9.2403969727222E-04
(PID.TID 0000.0001) %MON dynstat_wvel_min             =  -1.1205353907029E-03
(PID.TID 0000.0001) %MON dynstat_wvel_mean            =  -1.6536217857858E-20
(PID.TID 0000.0001) %MON dynstat_wvel_sd              =   2.4016882197268E-04
(PID.TID 0000.0001) %MON dynstat_wvel_del2            =   9.0960709463446E-05
(PID.TID 0000.0001) %MON dynstat_theta_max            =   1.1578986711770E+04
(PID.TID 0000.0001) %MON dynstat_theta_min            =   1.1578985871570E+04
(PID.TID 0000.0001) %MON dynstat_theta_mean           =   1.1578986295439E+04
(PID.TID 0000.0001) %MON dynstat_theta_sd             =   1.3373064310950E-04
(PID.TID 0000.0001) %MON dynstat_theta_del2           =   6.0164169989460E-05
(PID.TID 0000.0001) %MON dynstat_salt_max             =   0.0000000000000E+00
(PID.TID 0000.0001) %MON dynstat_salt_min             =   0.0000000000000E+00
(PID.TID 0000.0001) %MON dynstat_salt_mean            =   0.0000000000000E+00
(PID.TID 0000.0001) %MON dynstat_salt_sd              =   0.0000000000000E+00
(PID.TID 0000.0001) %MON dynstat_salt_del2            =   0.0000000000000E+00
(PID.TID 0000.0001) %MON extforcing_qnet_max          =   0.0000000000000E+00
(PID.TID 0000.0001) %MON extforcing_qnet_min          =   0.0000000000000E+00
(PID.TID 0000.0001) %MON extforcing_qnet_mean         =   0.0000000000000E+00
(PID.TID 0000.0001) %MON extforcing_qnet_sd           =   0.0000000000000E+00
(PID.TID 0000.0001) %MON extforcing_qnet_del2         =   0.0000000000000E+00
(PID.TID 0000.0001) %MON extforcing_qsw_max           =   0.0000000000000E+00
(PID.TID 0000.0001) %MON extforcing_qsw_min           =   0.0000000000000E+00
(PID.TID 0000.0001) %MON extforcing_qsw_mean          =   0.0000000000000E+00
(PID.TID 0000.0001) %MON extforcing_qsw_sd            =   0.0000000000000E+00
(PID.TID 0000.0001) %MON extforcing_qsw_del2          =   0.0000000000000E+00
(PID.TID 0000.0001) %MON extforcing_empmr_max         =   0.0000000000000E+00
(PID.TID 0000.0001) %MON extforcing_empmr_min         =   0.0000000000000E+00
(PID.TID 0000.0001) %MON extforcing_empmr_mean        =   0.0000000000000E+00
(PID.TID 0000.0001) %MON extforcing_empmr_sd          =   0.0000000000000E+00
(PID.TID 0000.0001) %MON extforcing_empmr_del2        =   0.0000000000000E+00
(PID.TID 0000.0001) %MON advcfl_uvel_max              =   1.3847725933119E-07
(PID.TID 0000.0001) %MON advcfl_vvel_max              =   2.1332906416117E-06
(PID.TID 0000.0001) %MON advcfl_wvel_max              =   1.3446424688435E-05
(PID.TID 0000.0001) %MON advcfl_W_hf_max              =   1.3446424688435E-05
(PID.TID 0000.0001) %MON pe_b_mean                    =   1.3448217271229E-10
(PID.TID 0000.0001) %MON ke_max                       =   6.6804612144948E-07
(PID.TID 0000.0001) %MON ke_mean                      =   4.0151418425677E-08
(PID.TID 0000.0001) %MON ke_vol                       =   3.4820518350516E+19
(PID.TID 0000.0001) %MON vort_r_min                   =  -3.1587062344334E-09
(PID.TID 0000.0001) %MON vort_r_max                   =   2.3927534585288E-09
(PID.TID 0000.0001) %MON vort_a_mean                  =  -8.0779316065989E-20
(PID.TID 0000.0001) %MON vort_a_sd                    =   8.2567010678345E-05
(PID.TID 0000.0001) %MON vort_p_mean                  =  -8.0985033266629E-20
(PID.TID 0000.0001) %MON vort_p_sd                    =   8.3918502438448E-05
(PID.TID 0000.0001) %MON surfExpan_theta_mean         =  -4.8152021218225E-12
(PID.TID 0000.0001) %MON surfExpan_salt_mean          =   0.0000000000000E+00
(PID.TID 0000.0001) // =======================================================
(PID.TID 0000.0001) // End MONITOR dynamic field statistics
(PID.TID 0000.0001) // =======================================================
 cg2d: Sum(rhs),rhsMax =   3.97600435668999E-05  5.26508273327150E-01
(PID.TID 0000.0001)                    cg2d_init_res =    4.02080878910870E-02
(PID.TID 0000.0001)                       cg2d_iters =   101
(PID.TID 0000.0001)                         cg2d_res =    6.76992501961013E-14
 cg3d: Sum(rhs),rhsMax =   1.72093242434279E-13  3.14318434100705E-02
(PID.TID 0000.0001)                    cg3d_init_res =    3.13851309115381E-01
(PID.TID 0000.0001)                       cg3d_iters =    40
(PID.TID 0000.0001)                         cg3d_res =    2.13995891318674E-04
(PID.TID 0000.0001) // =======================================================
(PID.TID 0000.0001) // Begin MONITOR dynamic field statistics
(PID.TID 0000.0001) // =======================================================
(PID.TID 0000.0001) %MON time_tsnumber                =                    15
(PID.TID 0000.0001) %MON time_secondsf                =   4.5000000000000E+03
(PID.TID 0000.0001) %MON dynstat_eta_max              =   2.2608607697549E-02
(PID.TID 0000.0001) %MON dynstat_eta_min              =  -1.8272963723074E-02
(PID.TID 0000.0001) %MON dynstat_eta_mean             =  -4.0652102436792E-06
(PID.TID 0000.0001) %MON dynstat_eta_sd               =   8.2411042335071E-03
(PID.TID 0000.0001) %MON dynstat_eta_del2             =   3.8118676001312E-03
(PID.TID 0000.0001) %MON dynstat_uvel_max             =   3.1207703206870E-04
(PID.TID 0000.0001) %MON dynstat_uvel_min             =  -2.9616658401323E-04
(PID.TID 0000.0001) %MON dynstat_uvel_mean            =  -3.1913032066073E-08
(PID.TID 0000.0001) %MON dynstat_uvel_sd              =   6.1684625489044E-05
(PID.TID 0000.0001) %MON dynstat_uvel_del2            =   1.6194611351442E-05
(PID.TID 0000.0001) %MON dynstat_vvel_max             =   8.1395759384992E-04
(PID.TID 0000.0001) %MON dynstat_vvel_min             =  -6.8170695681026E-04
(PID.TID 0000.0001) %MON dynstat_vvel_mean            =  -7.5870043390610E-08
(PID.TID 0000.0001) %MON dynstat_vvel_sd              =   1.4487208360388E-04
(PID.TID 0000.0001) %MON dynstat_vvel_del2            =   4.2158974198509E-05
(PID.TID 0000.0001) %MON dynstat_wvel_max             =   9.5432356139729E-04
(PID.TID 0000.0001) %MON dynstat_wvel_min             =  -1.1612488731991E-03
(PID.TID 0000.0001) %MON dynstat_wvel_mean            =  -6.2995115648981E-21
(PID.TID 0000.0001) %MON dynstat_wvel_sd              =   2.4815357825702E-04
(PID.TID 0000.0001) %MON dynstat_wvel_del2            =   9.1911073199081E-05
(PID.TID 0000.0001) %MON dynstat_theta_max            =   1.1578986704961E+04
(PID.TID 0000.0001) %MON dynstat_theta_min            =   1.1578985877456E+04
(PID.TID 0000.0001) %MON dynstat_theta_mean           =   1.1578986295439E+04
(PID.TID 0000.0001) %MON dynstat_theta_sd             =   1.3013193765305E-04
(PID.TID 0000.0001) %MON dynstat_theta_del2           =   5.8085949193808E-05
(PID.TID 0000.0001) %MON dynstat_salt_max             =   0.0000000000000E+00
(PID.TID 0000.0001) %MON dynstat_salt_min             =   0.0000000000000E+00
(PID.TID 0000.0001) %MON dynstat_salt_mean            =   0.0000000000000E+00
(PID.TID 0000.0001) %MON dynstat_salt_sd              =   0.0000000000000E+00
(PID.TID 0000.0001) %MON dynstat_salt_del2            =   0.0000000000000E+00
(PID.TID 0000.0001) %MON extforcing_qnet_max          =   0.0000000000000E+00
(PID.TID 0000.0001) %MON extforcing_qnet_min          =   0.0000000000000E+00
(PID.TID 0000.0001) %MON extforcing_qnet_mean         =   0.0000000000000E+00
(PID.TID 0000.0001) %MON extforcing_qnet_sd           =   0.0000000000000E+00
(PID.TID 0000.0001) %MON extforcing_qnet_del2         =   0.0000000000000E+00
(PID.TID 0000.0001) %MON extforcing_qsw_max           =   0.0000000000000E+00
(PID.TID 0000.0001) %MON extforcing_qsw_min           =   0.0000000000000E+00
(PID.TID 0000.0001) %MON extforcing_qsw_mean          =   0.0000000000000E+00
(PID.TID 0000.0001) %MON extforcing_qsw_sd            =   0.0000000000000E+00
(PID.TID 0000.0001) %MON extforcing_qsw_del2          =   0.0000000000000E+00
(PID.TID 0000.0001) %MON extforcing_empmr_max         =   0.0000000000000E+00
(PID.TID 0000.0001) %MON extforcing_empmr_min         =   0.0000000000000E+00
(PID.TID 0000.0001) %MON extforcing_empmr_mean        =   0.0000000000000E+00
(PID.TID 0000.0001) %MON extforcing_empmr_sd          =   0.0000000000000E+00
(PID.TID 0000.0001) %MON extforcing_empmr_del2        =   0.0000000000000E+00
(PID.TID 0000.0001) %MON advcfl_uvel_max              =   1.5440025595019E-07
(PID.TID 0000.0001) %MON advcfl_vvel_max              =   2.1963736968708E-06
(PID.TID 0000.0001) %MON advcfl_wvel_max              =   1.3934986478390E-05
(PID.TID 0000.0001) %MON advcfl_W_hf_max              =   1.3934986478390E-05
(PID.TID 0000.0001) %MON pe_b_mean                    =   1.3301710885849E-10
(PID.TID 0000.0001) %MON ke_max                       =   7.2278562815255E-07
(PID.TID 0000.0001) %MON ke_mean                      =   4.3083978358859E-08
(PID.TID 0000.0001) %MON ke_vol                       =   3.4820518350516E+19
(PID.TID 0000.0001) %MON vort_r_min                   =  -3.4694436373020E-09
(PID.TID 0000.0001) %MON vort_r_max                   =   2.6017569537806E-09
(PID.TID 0000.0001) %MON vort_a_mean                  =  -5.9836530419251E-20
(PID.TID 0000.0001) %MON vort_a_sd                    =   8.2567010677043E-05
(PID.TID 0000.0001) %MON vort_p_mean                  =  -5.9988913530836E-20
(PID.TID 0000.0001) %MON vort_p_sd                    =   8.3918502547716E-05
(PID.TID 0000.0001) %MON surfExpan_theta_mean         =  -4.5941513787825E-12
(PID.TID 0000.0001) %MON surfExpan_salt_mean          =   0.0000000000000E+00
(PID.TID 0000.0001) // =======================================================
(PID.TID 0000.0001) // End MONITOR dynamic field statistics
(PID.TID 0000.0001) // =======================================================
 cg2d: Sum(rhs),rhsMax =   4.18569837785654E-05  5.20303671471576E-01
(PID.TID 0000.0001)                    cg2d_init_res =    4.01510399780629E-02
(PID.TID 0000.0001)                       cg2d_iters =   101
(PID.TID 0000.0001)                         cg2d_res =    6.85009078175234E-14
 cg3d: Sum(rhs),rhsMax =   8.49197014790581E-14  3.10944228110265E-02
(PID.TID 0000.0001)                    cg3d_init_res =    3.10855357337878E-01
(PID.TID 0000.0001)                       cg3d_iters =    40
(PID.TID 0000.0001)                         cg3d_res =    2.07175117227667E-04
(PID.TID 0000.0001) // =======================================================
(PID.TID 0000.0001) // Begin MONITOR dynamic field statistics
(PID.TID 0000.0001) // =======================================================
(PID.TID 0000.0001) %MON time_tsnumber                =                    16
(PID.TID 0000.0001) %MON time_secondsf                =   4.8000000000000E+03
(PID.TID 0000.0001) %MON dynstat_eta_max              =   2.2515767040996E-02
(PID.TID 0000.0001) %MON dynstat_eta_min              =  -1.8171134865417E-02
(PID.TID 0000.0001) %MON dynstat_eta_mean             =  -4.2291762048974E-06
(PID.TID 0000.0001) %MON dynstat_eta_sd               =   8.1957499517428E-03
(PID.TID 0000.0001) %MON dynstat_eta_del2             =   3.7731176075649E-03
(PID.TID 0000.0001) %MON dynstat_uvel_max             =   3.4237743436020E-04
(PID.TID 0000.0001) %MON dynstat_uvel_min             =  -3.2378874483348E-04
(PID.TID 0000.0001) %MON dynstat_uvel_mean            =  -3.6118795559018E-08
(PID.TID 0000.0001) %MON dynstat_uvel_sd              =   6.7573994196233E-05
(PID.TID 0000.0001) %MON dynstat_uvel_del2            =   1.7121557305706E-05
(PID.TID 0000.0001) %MON dynstat_vvel_max             =   8.3546789199247E-04
(PID.TID 0000.0001) %MON dynstat_vvel_min             =  -7.0315744556416E-04
(PID.TID 0000.0001) %MON dynstat_vvel_mean            =  -1.1455250043274E-07
(PID.TID 0000.0001) %MON dynstat_vvel_sd              =   1.4913255120176E-04
(PID.TID 0000.0001) %MON dynstat_vvel_del2            =   4.2155914322549E-05
(PID.TID 0000.0001) %MON dynstat_wvel_max             =   9.8165767400070E-04
(PID.TID 0000.0001) %MON dynstat_wvel_min             =  -1.1985819663857E-03
(PID.TID 0000.0001) %MON dynstat_wvel_mean            =   1.0292951931932E-20
(PID.TID 0000.0001) %MON dynstat_wvel_sd              =   2.5553227023847E-04
(PID.TID 0000.0001) %MON dynstat_wvel_del2            =   9.2609753523426E-05
(PID.TID 0000.0001) %MON dynstat_theta_max            =   1.1578986698177E+04
(PID.TID 0000.0001) %MON dynstat_theta_min            =   1.1578985883353E+04
(PID.TID 0000.0001) %MON dynstat_theta_mean           =   1.1578986295439E+04
(PID.TID 0000.0001) %MON dynstat_theta_sd             =   1.2683884971797E-04
(PID.TID 0000.0001) %MON dynstat_theta_del2           =   5.6173312701284E-05
(PID.TID 0000.0001) %MON dynstat_salt_max             =   0.0000000000000E+00
(PID.TID 0000.0001) %MON dynstat_salt_min             =   0.0000000000000E+00
(PID.TID 0000.0001) %MON dynstat_salt_mean            =   0.0000000000000E+00
(PID.TID 0000.0001) %MON dynstat_salt_sd              =   0.0000000000000E+00
(PID.TID 0000.0001) %MON dynstat_salt_del2            =   0.0000000000000E+00
(PID.TID 0000.0001) %MON extforcing_qnet_max          =   0.0000000000000E+00
(PID.TID 0000.0001) %MON extforcing_qnet_min          =   0.0000000000000E+00
(PID.TID 0000.0001) %MON extforcing_qnet_mean         =   0.0000000000000E+00
(PID.TID 0000.0001) %MON extforcing_qnet_sd           =   0.0000000000000E+00
(PID.TID 0000.0001) %MON extforcing_qnet_del2         =   0.0000000000000E+00
(PID.TID 0000.0001) %MON extforcing_qsw_max           =   0.0000000000000E+00
(PID.TID 0000.0001) %MON extforcing_qsw_min           =   0.0000000000000E+00
(PID.TID 0000.0001) %MON extforcing_qsw_mean          =   0.0000000000000E+00
(PID.TID 0000.0001) %MON extforcing_qsw_sd            =   0.0000000000000E+00
(PID.TID 0000.0001) %MON extforcing_qsw_del2          =   0.0000000000000E+00
(PID.TID 0000.0001) %MON extforcing_empmr_max         =   0.0000000000000E+00
(PID.TID 0000.0001) %MON extforcing_empmr_min         =   0.0000000000000E+00
(PID.TID 0000.0001) %MON extforcing_empmr_mean        =   0.0000000000000E+00
(PID.TID 0000.0001) %MON extforcing_empmr_sd          =   0.0000000000000E+00
(PID.TID 0000.0001) %MON extforcing_empmr_del2        =   0.0000000000000E+00
(PID.TID 0000.0001) %MON advcfl_uvel_max              =   1.7073760273586E-07
(PID.TID 0000.0001) %MON advcfl_vvel_max              =   2.2544168350013E-06
(PID.TID 0000.0001) %MON advcfl_wvel_max              =   1.4382983596629E-05
(PID.TID 0000.0001) %MON advcfl_W_hf_max              =   1.4382983596629E-05
(PID.TID 0000.0001) %MON pe_b_mean                    =   1.3155704184874E-10
(PID.TID 0000.0001) %MON ke_max                       =   7.7606977391874E-07
(PID.TID 0000.0001) %MON ke_mean                      =   4.5943002443964E-08
(PID.TID 0000.0001) %MON ke_vol                       =   3.4820518350516E+19
(PID.TID 0000.0001) %MON vort_r_min                   =  -3.7797260457193E-09
(PID.TID 0000.0001) %MON vort_r_max                   =   2.8066916382210E-09
(PID.TID 0000.0001) %MON vort_a_mean                  =   2.6926438688663E-20
(PID.TID 0000.0001) %MON vort_a_sd                    =   8.2567010675726E-05
(PID.TID 0000.0001) %MON vort_p_mean                  =   2.6995011088876E-20
(PID.TID 0000.0001) %MON vort_p_sd                    =   8.3918502660791E-05
(PID.TID 0000.0001) %MON surfExpan_theta_mean         =  -5.0598173966689E-12
(PID.TID 0000.0001) %MON surfExpan_salt_mean          =   0.0000000000000E+00
(PID.TID 0000.0001) // =======================================================
(PID.TID 0000.0001) // End MONITOR dynamic field statistics
(PID.TID 0000.0001) // =======================================================
 cg2d: Sum(rhs),rhsMax =   4.46579280368731E-05  5.14185762743290E-01
(PID.TID 0000.0001)                    cg2d_init_res =    4.00948969458679E-02
(PID.TID 0000.0001)                       cg2d_iters =   101
(PID.TID 0000.0001)                         cg2d_res =    6.93123091937550E-14
 cg3d: Sum(rhs),rhsMax =  -1.18325488296378E-14  3.07628532216883E-02
(PID.TID 0000.0001)                    cg3d_init_res =    3.07965335802588E-01
(PID.TID 0000.0001)                       cg3d_iters =    40
(PID.TID 0000.0001)                         cg3d_res =    1.90608720176103E-04
(PID.TID 0000.0001) // =======================================================
(PID.TID 0000.0001) // Begin MONITOR dynamic field statistics
(PID.TID 0000.0001) // =======================================================
(PID.TID 0000.0001) %MON time_tsnumber                =                    17
(PID.TID 0000.0001) %MON time_secondsf                =   5.1000000000000E+03
(PID.TID 0000.0001) %MON dynstat_eta_max              =   2.2415378063517E-02
(PID.TID 0000.0001) %MON dynstat_eta_min              =  -1.8071593759500E-02
(PID.TID 0000.0001) %MON dynstat_eta_mean             =  -4.4591242791216E-06
(PID.TID 0000.0001) %MON dynstat_eta_sd               =   8.1504015338888E-03
(PID.TID 0000.0001) %MON dynstat_eta_del2             =   3.7348197646605E-03
(PID.TID 0000.0001) %MON dynstat_uvel_max             =   3.7288496183224E-04
(PID.TID 0000.0001) %MON dynstat_uvel_min             =  -3.5147066243777E-04
(PID.TID 0000.0001) %MON dynstat_uvel_mean            =  -3.9393978780765E-08
(PID.TID 0000.0001) %MON dynstat_uvel_sd              =   7.3550406467878E-05
(PID.TID 0000.0001) %MON dynstat_uvel_del2            =   1.7999110313191E-05
(PID.TID 0000.0001) %MON dynstat_vvel_max             =   8.5531309721308E-04
(PID.TID 0000.0001) %MON dynstat_vvel_min             =  -7.2319285968236E-04
(PID.TID 0000.0001) %MON dynstat_vvel_mean            =  -1.5608752724005E-07
(PID.TID 0000.0001) %MON dynstat_vvel_sd              =   1.5312591696654E-04
(PID.TID 0000.0001) %MON dynstat_vvel_del2            =   4.2080090574901E-05
(PID.TID 0000.0001) %MON dynstat_wvel_max             =   1.0062529721498E-03
(PID.TID 0000.0001) %MON dynstat_wvel_min             =  -1.2327248016857E-03
(PID.TID 0000.0001) %MON dynstat_wvel_mean            =  -8.1556176509842E-21
(PID.TID 0000.0001) %MON dynstat_wvel_sd              =   2.6235362264917E-04
(PID.TID 0000.0001) %MON dynstat_wvel_del2            =   9.3093891772752E-05
(PID.TID 0000.0001) %MON dynstat_theta_max            =   1.1578986691437E+04
(PID.TID 0000.0001) %MON dynstat_theta_min            =   1.1578985889246E+04
(PID.TID 0000.0001) %MON dynstat_theta_mean           =   1.1578986295439E+04
(PID.TID 0000.0001) %MON dynstat_theta_sd             =   1.2380788490512E-04
(PID.TID 0000.0001) %MON dynstat_theta_del2           =   5.4403821979120E-05
(PID.TID 0000.0001) %MON dynstat_salt_max             =   0.0000000000000E+00
(PID.TID 0000.0001) %MON dynstat_salt_min             =   0.0000000000000E+00
(PID.TID 0000.0001) %MON dynstat_salt_mean            =   0.0000000000000E+00
(PID.TID 0000.0001) %MON dynstat_salt_sd              =   0.0000000000000E+00
(PID.TID 0000.0001) %MON dynstat_salt_del2            =   0.0000000000000E+00
(PID.TID 0000.0001) %MON extforcing_qnet_max          =   0.0000000000000E+00
(PID.TID 0000.0001) %MON extforcing_qnet_min          =   0.0000000000000E+00
(PID.TID 0000.0001) %MON extforcing_qnet_mean         =   0.0000000000000E+00
(PID.TID 0000.0001) %MON extforcing_qnet_sd           =   0.0000000000000E+00
(PID.TID 0000.0001) %MON extforcing_qnet_del2         =   0.0000000000000E+00
(PID.TID 0000.0001) %MON extforcing_qsw_max           =   0.0000000000000E+00
(PID.TID 0000.0001) %MON extforcing_qsw_min           =   0.0000000000000E+00
(PID.TID 0000.0001) %MON extforcing_qsw_mean          =   0.0000000000000E+00
(PID.TID 0000.0001) %MON extforcing_qsw_sd            =   0.0000000000000E+00
(PID.TID 0000.0001) %MON extforcing_qsw_del2          =   0.0000000000000E+00
(PID.TID 0000.0001) %MON extforcing_empmr_max         =   0.0000000000000E+00
(PID.TID 0000.0001) %MON extforcing_empmr_min         =   0.0000000000000E+00
(PID.TID 0000.0001) %MON extforcing_empmr_mean        =   0.0000000000000E+00
(PID.TID 0000.0001) %MON extforcing_empmr_sd          =   0.0000000000000E+00
(PID.TID 0000.0001) %MON extforcing_empmr_del2        =   0.0000000000000E+00
(PID.TID 0000.0001) %MON advcfl_uvel_max              =   1.8744603964922E-07
(PID.TID 0000.0001) %MON advcfl_vvel_max              =   2.3079669057726E-06
(PID.TID 0000.0001) %MON advcfl_wvel_max              =   1.4792697620228E-05
(PID.TID 0000.0001) %MON advcfl_W_hf_max              =   1.4792697620228E-05
(PID.TID 0000.0001) %MON pe_b_mean                    =   1.3010522085282E-10
(PID.TID 0000.0001) %MON ke_max                       =   8.2774821271300E-07
(PID.TID 0000.0001) %MON ke_mean                      =   4.8728689004133E-08
(PID.TID 0000.0001) %MON ke_vol                       =   3.4820518350516E+19
(PID.TID 0000.0001) %MON vort_r_min                   =  -4.0884448538760E-09
(PID.TID 0000.0001) %MON vort_r_max                   =   3.0069089383193E-09
(PID.TID 0000.0001) %MON vort_a_mean                  =   3.2910091730588E-20
(PID.TID 0000.0001) %MON vort_a_sd                    =   8.2567010674606E-05
(PID.TID 0000.0001) %MON vort_p_mean                  =   3.2993902441960E-20
(PID.TID 0000.0001) %MON vort_p_sd                    =   8.3918502777528E-05
(PID.TID 0000.0001) %MON surfExpan_theta_mean         =  -5.8639540672866E-12
(PID.TID 0000.0001) %MON surfExpan_salt_mean          =   0.0000000000000E+00
(PID.TID 0000.0001) // =======================================================
(PID.TID 0000.0001) // End MONITOR dynamic field statistics
(PID.TID 0000.0001) // =======================================================
 cg2d: Sum(rhs),rhsMax =   4.77063203719041E-05  5.08153381634871E-01
(PID.TID 0000.0001)                    cg2d_init_res =    4.00399114085804E-02
(PID.TID 0000.0001)                       cg2d_iters =   101
(PID.TID 0000.0001)                         cg2d_res =    7.01421382240087E-14
 cg3d: Sum(rhs),rhsMax =  -8.27140005793536E-14  3.04367919652788E-02
(PID.TID 0000.0001)                    cg3d_init_res =    3.05158726344341E-01
(PID.TID 0000.0001)                       cg3d_iters =    40
(PID.TID 0000.0001)                         cg3d_res =    1.51912365387588E-04
(PID.TID 0000.0001) // =======================================================
(PID.TID 0000.0001) // Begin MONITOR dynamic field statistics
(PID.TID 0000.0001) // =======================================================
(PID.TID 0000.0001) %MON time_tsnumber                =                    18
(PID.TID 0000.0001) %MON time_secondsf                =   5.4000000000000E+03
(PID.TID 0000.0001) %MON dynstat_eta_max              =   2.2308598730471E-02
(PID.TID 0000.0001) %MON dynstat_eta_min              =  -1.7983300152401E-02
(PID.TID 0000.0001) %MON dynstat_eta_mean             =  -4.7076232618098E-06
(PID.TID 0000.0001) %MON dynstat_eta_sd               =   8.1051370115750E-03
(PID.TID 0000.0001) %MON dynstat_eta_del2             =   3.6969670133508E-03
(PID.TID 0000.0001) %MON dynstat_uvel_max             =   4.0349586607192E-04
(PID.TID 0000.0001) %MON dynstat_uvel_min             =  -3.7912923111136E-04
(PID.TID 0000.0001) %MON dynstat_uvel_mean            =  -4.1152643407631E-08
(PID.TID 0000.0001) %MON dynstat_uvel_sd              =   7.9602744627765E-05
(PID.TID 0000.0001) %MON dynstat_uvel_del2            =   1.8828564038531E-05
(PID.TID 0000.0001) %MON dynstat_vvel_max             =   8.7366685598479E-04
(PID.TID 0000.0001) %MON dynstat_vvel_min             =  -7.4191615288117E-04
(PID.TID 0000.0001) %MON dynstat_vvel_mean            =  -1.9577669857885E-07
(PID.TID 0000.0001) %MON dynstat_vvel_sd              =   1.5687293745637E-04
(PID.TID 0000.0001) %MON dynstat_vvel_del2            =   4.1943700858733E-05
(PID.TID 0000.0001) %MON dynstat_wvel_max             =   1.0335413826263E-03
(PID.TID 0000.0001) %MON dynstat_wvel_min             =  -1.2638520405593E-03
(PID.TID 0000.0001) %MON dynstat_wvel_mean            =   2.0417166946947E-20
(PID.TID 0000.0001) %MON dynstat_wvel_sd              =   2.6866005648019E-04
(PID.TID 0000.0001) %MON dynstat_wvel_del2            =   9.3389991424162E-05
(PID.TID 0000.0001) %MON dynstat_theta_max            =   1.1578986684757E+04
(PID.TID 0000.0001) %MON dynstat_theta_min            =   1.1578985895121E+04
(PID.TID 0000.0001) %MON dynstat_theta_mean           =   1.1578986295439E+04
(PID.TID 0000.0001) %MON dynstat_theta_sd             =   1.2100339706832E-04
(PID.TID 0000.0001) %MON dynstat_theta_del2           =   5.2762961466978E-05
(PID.TID 0000.0001) %MON dynstat_salt_max             =   0.0000000000000E+00
(PID.TID 0000.0001) %MON dynstat_salt_min             =   0.0000000000000E+00
(PID.TID 0000.0001) %MON dynstat_salt_mean            =   0.0000000000000E+00
(PID.TID 0000.0001) %MON dynstat_salt_sd              =   0.0000000000000E+00
(PID.TID 0000.0001) %MON dynstat_salt_del2            =   0.0000000000000E+00
(PID.TID 0000.0001) %MON extforcing_qnet_max          =   0.0000000000000E+00
(PID.TID 0000.0001) %MON extforcing_qnet_min          =   0.0000000000000E+00
(PID.TID 0000.0001) %MON extforcing_qnet_mean         =   0.0000000000000E+00
(PID.TID 0000.0001) %MON extforcing_qnet_sd           =   0.0000000000000E+00
(PID.TID 0000.0001) %MON extforcing_qnet_del2         =   0.0000000000000E+00
(PID.TID 0000.0001) %MON extforcing_qsw_max           =   0.0000000000000E+00
(PID.TID 0000.0001) %MON extforcing_qsw_min           =   0.0000000000000E+00
(PID.TID 0000.0001) %MON extforcing_qsw_mean          =   0.0000000000000E+00
(PID.TID 0000.0001) %MON extforcing_qsw_sd            =   0.0000000000000E+00
(PID.TID 0000.0001) %MON extforcing_qsw_del2          =   0.0000000000000E+00
(PID.TID 0000.0001) %MON extforcing_empmr_max         =   0.0000000000000E+00
(PID.TID 0000.0001) %MON extforcing_empmr_min         =   0.0000000000000E+00
(PID.TID 0000.0001) %MON extforcing_empmr_mean        =   0.0000000000000E+00
(PID.TID 0000.0001) %MON extforcing_empmr_sd          =   0.0000000000000E+00
(PID.TID 0000.0001) %MON extforcing_empmr_del2        =   0.0000000000000E+00
(PID.TID 0000.0001) %MON advcfl_uvel_max              =   2.0448526660782E-07
(PID.TID 0000.0001) %MON advcfl_vvel_max              =   2.3574924748065E-06
(PID.TID 0000.0001) %MON advcfl_wvel_max              =   1.5166224486711E-05
(PID.TID 0000.0001) %MON advcfl_W_hf_max              =   1.5166224486711E-05
(PID.TID 0000.0001) %MON pe_b_mean                    =   1.2866411944160E-10
(PID.TID 0000.0001) %MON ke_max                       =   8.7769811688631E-07
(PID.TID 0000.0001) %MON ke_mean                      =   5.1441759433915E-08
(PID.TID 0000.0001) %MON ke_vol                       =   3.4820518350516E+19
(PID.TID 0000.0001) %MON vort_r_min                   =  -4.3946300595635E-09
(PID.TID 0000.0001) %MON vort_r_max                   =   3.2018857196591E-09
(PID.TID 0000.0001) %MON vort_a_mean                  =  -3.8893744772513E-20
(PID.TID 0000.0001) %MON vort_a_sd                    =   8.2567010673800E-05
(PID.TID 0000.0001) %MON vort_p_mean                  =  -3.8992793795044E-20
(PID.TID 0000.0001) %MON vort_p_sd                    =   8.3918502897768E-05
(PID.TID 0000.0001) %MON surfExpan_theta_mean         =  -6.7703327573602E-12
(PID.TID 0000.0001) %MON surfExpan_salt_mean          =   0.0000000000000E+00
(PID.TID 0000.0001) // =======================================================
(PID.TID 0000.0001) // End MONITOR dynamic field statistics
(PID.TID 0000.0001) // =======================================================
 Compute Stats, Diag. #     23  ETAN      vol(   0 ): 8.342E+13  Parms: SM      M1      
 Compute Stats, Diag. #     30  UVEL      vol(   0 ): 2.503E+20  Parms: UU      MR      
 Compute Stats, Diag. #     31  VVEL      vol(   0 ): 2.498E+20  Parms: VV      MR      
 Compute Stats, Diag. #     32  WVEL      vol(   0 ): 2.492E+20  Parms: WM      LR      
 Compute Stats, Diag. #     26  THETA     vol(   0 ): 2.503E+20  Parms: SM      MR      
(PID.TID 0000.0001) %CHECKPOINT        18 ckptA
(PID.TID 0000.0001) DIAGSTATS_CLOSE_IO: close file: dynStDiag.0000000000.txt , unit=     9
(PID.TID 0000.0001)   Seconds in section "ALL                    [THE_MODEL_MAIN]":
(PID.TID 0000.0001)           User time:  31.4212226
(PID.TID 0000.0001)         System time:  0.181972007
(PID.TID 0000.0001)     Wall clock time:  31.7599771
(PID.TID 0000.0001)          No. starts: 1
(PID.TID 0000.0001)           No. stops: 1
(PID.TID 0000.0001)   Seconds in section "INITIALISE_FIXED       [THE_MODEL_MAIN]":
(PID.TID 0000.0001)           User time:  0.315951994
(PID.TID 0000.0001)         System time:  0.0579910004
(PID.TID 0000.0001)     Wall clock time:  0.444764853
(PID.TID 0000.0001)          No. starts: 1
(PID.TID 0000.0001)           No. stops: 1
(PID.TID 0000.0001)   Seconds in section "THE_MAIN_LOOP          [THE_MODEL_MAIN]":
(PID.TID 0000.0001)           User time:  31.1052706
(PID.TID 0000.0001)         System time:  0.123981006
(PID.TID 0000.0001)     Wall clock time:  31.314955
(PID.TID 0000.0001)          No. starts: 1
(PID.TID 0000.0001)           No. stops: 1
(PID.TID 0000.0001)   Seconds in section "INITIALISE_VARIA    [THE_MAIN_LOOP]":
(PID.TID 0000.0001)           User time:  0.255961031
(PID.TID 0000.0001)         System time:  0.0689899996
(PID.TID 0000.0001)     Wall clock time:  0.356280804
(PID.TID 0000.0001)          No. starts: 1
(PID.TID 0000.0001)           No. stops: 1
(PID.TID 0000.0001)   Seconds in section "MAIN LOOP           [THE_MAIN_LOOP]":
(PID.TID 0000.0001)           User time:  30.8493096
(PID.TID 0000.0001)         System time:  0.0549910069
(PID.TID 0000.0001)     Wall clock time:  30.95855
(PID.TID 0000.0001)          No. starts: 1
(PID.TID 0000.0001)           No. stops: 1
(PID.TID 0000.0001)   Seconds in section "FORWARD_STEP        [THE_MAIN_LOOP]":
(PID.TID 0000.0001)           User time:  30.8493096
(PID.TID 0000.0001)         System time:  0.0549910069
(PID.TID 0000.0001)     Wall clock time:  30.9578035
(PID.TID 0000.0001)          No. starts: 18
(PID.TID 0000.0001)           No. stops: 18
(PID.TID 0000.0001)   Seconds in section "DO_STATEVARS_DIAGS  [FORWARD_STEP]":
(PID.TID 0000.0001)           User time:  0.125980914
(PID.TID 0000.0001)         System time:  0.
(PID.TID 0000.0001)     Wall clock time:  0.126997948
(PID.TID 0000.0001)          No. starts: 54
(PID.TID 0000.0001)           No. stops: 54
(PID.TID 0000.0001)   Seconds in section "LOAD_FIELDS_DRIVER  [FORWARD_STEP]":
(PID.TID 0000.0001)           User time:  0.00199991465
(PID.TID 0000.0001)         System time:  0.
(PID.TID 0000.0001)     Wall clock time:  0.0021481514
(PID.TID 0000.0001)          No. starts: 18
(PID.TID 0000.0001)           No. stops: 18
(PID.TID 0000.0001)   Seconds in section "EXTERNAL_FLDS_LOAD [LOAD_FLDS_DRIVER]":
(PID.TID 0000.0001)           User time:  0.
(PID.TID 0000.0001)         System time:  0.
(PID.TID 0000.0001)     Wall clock time:  0.000722885132
(PID.TID 0000.0001)          No. starts: 18
(PID.TID 0000.0001)           No. stops: 18
(PID.TID 0000.0001)   Seconds in section "DO_ATMOSPHERIC_PHYS [FORWARD_STEP]":
(PID.TID 0000.0001)           User time:  0.000999450684
(PID.TID 0000.0001)         System time:  0.
(PID.TID 0000.0001)     Wall clock time:  0.000711202621
(PID.TID 0000.0001)          No. starts: 18
(PID.TID 0000.0001)           No. stops: 18
(PID.TID 0000.0001)   Seconds in section "DO_OCEANIC_PHYS     [FORWARD_STEP]":
(PID.TID 0000.0001)           User time:  0.511924446
(PID.TID 0000.0001)         System time:  0.00199900568
(PID.TID 0000.0001)     Wall clock time:  0.516882181
(PID.TID 0000.0001)          No. starts: 18
(PID.TID 0000.0001)           No. stops: 18
(PID.TID 0000.0001)   Seconds in section "DYNAMICS            [FORWARD_STEP]":
(PID.TID 0000.0001)           User time:  7.97079176
(PID.TID 0000.0001)         System time:  0.00499999523
(PID.TID 0000.0001)     Wall clock time:  7.98660874
(PID.TID 0000.0001)          No. starts: 18
(PID.TID 0000.0001)           No. stops: 18
(PID.TID 0000.0001)   Seconds in section "CALC_GW          [DYNAMICS]":
(PID.TID 0000.0001)           User time:  1.66474545
(PID.TID 0000.0001)         System time:  0.
(PID.TID 0000.0001)     Wall clock time:  1.66716576
(PID.TID 0000.0001)          No. starts: 72
(PID.TID 0000.0001)           No. stops: 72
(PID.TID 0000.0001)   Seconds in section "SOLVE_FOR_PRESSURE  [FORWARD_STEP]":
(PID.TID 0000.0001)           User time:  15.9095771
(PID.TID 0000.0001)         System time:  0.00899800658
(PID.TID 0000.0001)     Wall clock time:  15.9210401
(PID.TID 0000.0001)          No. starts: 18
(PID.TID 0000.0001)           No. stops: 18
(PID.TID 0000.0001)   Seconds in section "CG3D   [SOLVE_FOR_PRESSURE]":
(PID.TID 0000.0001)           User time:  15.39966
(PID.TID 0000.0001)         System time:  0.00899800658
(PID.TID 0000.0001)     Wall clock time:  15.4063694
(PID.TID 0000.0001)          No. starts: 18
(PID.TID 0000.0001)           No. stops: 18
(PID.TID 0000.0001)   Seconds in section "MOM_CORRECTION_STEP [FORWARD_STEP]":
(PID.TID 0000.0001)           User time:  0.378942966
(PID.TID 0000.0001)         System time:  0.000999987125
(PID.TID 0000.0001)     Wall clock time:  0.379333973
(PID.TID 0000.0001)          No. starts: 18
(PID.TID 0000.0001)           No. stops: 18
(PID.TID 0000.0001)   Seconds in section "BLOCKING_EXCHANGES  [FORWARD_STEP]":
(PID.TID 0000.0001)           User time:  0.889862895
(PID.TID 0000.0001)         System time:  0.
(PID.TID 0000.0001)     Wall clock time:  0.891601086
(PID.TID 0000.0001)          No. starts: 36
(PID.TID 0000.0001)           No. stops: 36
(PID.TID 0000.0001)   Seconds in section "THERMODYNAMICS      [FORWARD_STEP]":
(PID.TID 0000.0001)           User time:  3.79642034
(PID.TID 0000.0001)         System time:  0.00499801338
(PID.TID 0000.0001)     Wall clock time:  3.80803299
(PID.TID 0000.0001)          No. starts: 18
(PID.TID 0000.0001)           No. stops: 18
(PID.TID 0000.0001)   Seconds in section "TRC_CORRECTION_STEP [FORWARD_STEP]":
(PID.TID 0000.0001)           User time:  0.0549921989
(PID.TID 0000.0001)         System time:  0.
(PID.TID 0000.0001)     Wall clock time:  0.0559711456
(PID.TID 0000.0001)          No. starts: 18
(PID.TID 0000.0001)           No. stops: 18
(PID.TID 0000.0001)   Seconds in section "MONITOR             [FORWARD_STEP]":
(PID.TID 0000.0001)           User time:  1.0488441
(PID.TID 0000.0001)         System time:  0.00299999118
(PID.TID 0000.0001)     Wall clock time:  1.05356789
(PID.TID 0000.0001)          No. starts: 18
(PID.TID 0000.0001)           No. stops: 18
(PID.TID 0000.0001)   Seconds in section "DO_THE_MODEL_IO     [FORWARD_STEP]":
(PID.TID 0000.0001)           User time:  0.0869855881
(PID.TID 0000.0001)         System time:  0.018997997
(PID.TID 0000.0001)     Wall clock time:  0.136390686
(PID.TID 0000.0001)          No. starts: 18
(PID.TID 0000.0001)           No. stops: 18
(PID.TID 0000.0001)   Seconds in section "DO_WRITE_PICKUP     [FORWARD_STEP]":
(PID.TID 0000.0001)           User time:  0.0549907684
(PID.TID 0000.0001)         System time:  0.00899800658
(PID.TID 0000.0001)     Wall clock time:  0.0656769276
(PID.TID 0000.0001)          No. starts: 18
(PID.TID 0000.0001)           No. stops: 18
(PID.TID 0000.0001) // ======================================================
(PID.TID 0000.0001) // Tile <-> Tile communication statistics
(PID.TID 0000.0001) // ======================================================
(PID.TID 0000.0001) // o Tile number: 000001
(PID.TID 0000.0001) //         No. X exchanges =              0
(PID.TID 0000.0001) //            Max. X spins =              0
(PID.TID 0000.0001) //            Min. X spins =     1000000000
(PID.TID 0000.0001) //          Total. X spins =              0
(PID.TID 0000.0001) //            Avg. X spins =       0.00E+00
(PID.TID 0000.0001) //         No. Y exchanges =              0
(PID.TID 0000.0001) //            Max. Y spins =              0
(PID.TID 0000.0001) //            Min. Y spins =     1000000000
(PID.TID 0000.0001) //          Total. Y spins =              0
(PID.TID 0000.0001) //            Avg. Y spins =       0.00E+00
(PID.TID 0000.0001) // o Tile number: 000002
(PID.TID 0000.0001) //         No. X exchanges =              0
(PID.TID 0000.0001) //            Max. X spins =              0
(PID.TID 0000.0001) //            Min. X spins =     1000000000
(PID.TID 0000.0001) //          Total. X spins =              0
(PID.TID 0000.0001) //            Avg. X spins =       0.00E+00
(PID.TID 0000.0001) //         No. Y exchanges =              0
(PID.TID 0000.0001) //            Max. Y spins =              0
(PID.TID 0000.0001) //            Min. Y spins =     1000000000
(PID.TID 0000.0001) //          Total. Y spins =              0
(PID.TID 0000.0001) //            Avg. Y spins =       0.00E+00
(PID.TID 0000.0001) // o Tile number: 000003
(PID.TID 0000.0001) //         No. X exchanges =              0
(PID.TID 0000.0001) //            Max. X spins =              0
(PID.TID 0000.0001) //            Min. X spins =     1000000000
(PID.TID 0000.0001) //          Total. X spins =              0
(PID.TID 0000.0001) //            Avg. X spins =       0.00E+00
(PID.TID 0000.0001) //         No. Y exchanges =              0
(PID.TID 0000.0001) //            Max. Y spins =              0
(PID.TID 0000.0001) //            Min. Y spins =     1000000000
(PID.TID 0000.0001) //          Total. Y spins =              0
(PID.TID 0000.0001) //            Avg. Y spins =       0.00E+00
(PID.TID 0000.0001) // o Tile number: 000004
(PID.TID 0000.0001) //         No. X exchanges =              0
(PID.TID 0000.0001) //            Max. X spins =              0
(PID.TID 0000.0001) //            Min. X spins =     1000000000
(PID.TID 0000.0001) //          Total. X spins =              0
(PID.TID 0000.0001) //            Avg. X spins =       0.00E+00
(PID.TID 0000.0001) //         No. Y exchanges =              0
(PID.TID 0000.0001) //            Max. Y spins =              0
(PID.TID 0000.0001) //            Min. Y spins =     1000000000
(PID.TID 0000.0001) //          Total. Y spins =              0
(PID.TID 0000.0001) //            Avg. Y spins =       0.00E+00
(PID.TID 0000.0001) // o Thread number: 000001
(PID.TID 0000.0001) //            No. barriers =          34124
(PID.TID 0000.0001) //      Max. barrier spins =              1
(PID.TID 0000.0001) //      Min. barrier spins =              1
(PID.TID 0000.0001) //     Total barrier spins =          34124
(PID.TID 0000.0001) //      Avg. barrier spins =       1.00E+00
